version 3
run General-0-20240814-10:31:40-377138
attr configname General
attr datetime 20240814-10:31:40
attr datetimef 20240814-103140
attr experiment General
attr inifile final.ini
attr iterationvars ""
attr iterationvarsd ""
attr iterationvarsf ""
attr measurement ""
attr network LunarNetwork
attr processid 377138
attr repetition 0
attr replication #0
attr resultdir results
attr runnumber 0
attr seedset 0
config network LunarNetwork
config repeat 10
config warmup-period 10s
config sim-time-limit 100s
config **.vector-recording false
config **.constraintAreaMinX 0m
config **.constraintAreaMinY 0m
config **.constraintAreaMinZ 0m
config **.constraintAreaMaxX 600m
config **.constraintAreaMaxY 400m
config **.constraintAreaMaxZ 0m
config **.channelNumber 0
config **.wlanAP.mobility.typename StationaryMobility
config **.mobility.initFromDisplayString false
config **.wlanAP.mobility.initialX 10m
config **.wlanAP.mobility.initialY 10m
config **.wlanAP.mobility.initialZ 0m
config **.lunarWebBrowsing[*].mobility.typename StationaryMobility
config **.lunarWebBrowsing[*].mobility.initialX uniform(0m,20m)
config **.lunarWebBrowsing[*].mobility.initialY uniform(0m,20m)
config **.lunarWebBrowsing[*].mobility.initialZ 0m
config **.ftpUploadScience.mobility.typename StationaryMobility
config **.ftpUploadScience.mobility.initialX uniform(0m,20m)
config **.ftpUploadScience.mobility.initialY uniform(0m,20m)
config **.ftpUploadScience.mobility.initialZ 0m
config **.videoConference.mobility.typename StationaryMobility
config **.videoConference.mobility.initialX uniform(0m,20m)
config **.videoConference.mobility.initialY uniform(0m,20m)
config **.videoConference.mobility.initialZ 0m
config **.tcp.tcpAlgorithmClass "\"TcpNewReno\""
config **.tcp.windowScalingSupport true
config **.tcp.mss 1460
config **.tcp.advertisedWindow 1460000
config **.ppp[*].queue.typename DropTailQueue
config **.ppp[*].queue.packetCapacity 100
config **.eth[*].queue.typename DropTailQueue
config **.eth[*].queue.packetCapacity 100
config **.wlan[*].mac.dcf.channelAccess.pendingQueue.packetCapacity 14
config **.wlan[*].mac.dcf.rtsPolicy.rtsThreshold 3000B
config **.wlan[*].mac.dcf.recoveryProcedure.shortRetryLimit 7
config **.wlan[*].mac.dcf.recoveryProcedure.longRetryLimit 7
config **.wlan[*].mac.dcf.channelAccess.cwMin 7
config **.wlan[*].opMode "\"g(mixed)\""
config **.wlan[*].bitrate 54Mbps
config **.lunarWebBrowsing[*].numApps 1
config **.lunarWebBrowsing[*].app[0].typename TcpBasicClientApp
config **.lunarWebBrowsing[*].app[0].connectAddress "\"httpServer\""
config **.lunarWebBrowsing[*].app[0].connectPort 4000
config **.lunarWebBrowsing[*].app[0].requestLength 200B
config **.lunarWebBrowsing[*].app[0].replyLength 700KiB
config **.lunarWebBrowsing[*].app[0].idleInterval exponential(15s)
config **.lunarWebBrowsing[*].app[0].thinkTime 0s
config **.cctvCamera.numApps 1
config **.cctvCamera.app[0].typename UdpBasicApp
config **.cctvCamera.app[0].messageLength 30000B
config **.cctvCamera.app[0].sendInterval 40ms
config **.cctvCamera.app[0].destAddresses "\"cctvMonitoringStation\""
config **.cctvCamera.app[0].destPort 1234
config **.cctvCamera.app[0].localPort 1500
config **.cctvMonitoringStation.numApps 1
config **.cctvMonitoringStation.app[0].typename UdpSink
config **.cctvMonitoringStation.app[0].localPort 1234
config **.cctvMonitoringStation.app[0].startTime 0s
config **.videoConference.numApps 1
config **.videoConference.app[0].typename RtpOverUdpApp
config **.videoConference.app[0].destPort 3000
config **.videoConference.app[0].localPort 2500
config **.videoConference.app[0].destAddresses "\"videoConferenceRoom\""
config **.videoConference.app[0].messageLength 1388B
config **.videoConference.app[0].sendInterval 40ms
config **.videoConference.app[0].startTime 0s
config **.videoConference.app[0].maxEndToEndDelay 0.1s
config **.videoConference.app[0].maxLossRate 0.05
config **.videoConferenceRoom.numApps 1
config **.videoConferenceRoom.app[0].typename RtpOverUdpApp
config **.videoConferenceRoom.app[0].localPort 3000
config **.videoConferenceRoom.app[0].destPort 2500
config **.videoConferenceRoom.app[0].destAddresses "\"videoConference\""
config **.videoConferenceRoom.app[0].messageLength 1388B
config **.videoConferenceRoom.app[0].sendInterval 40ms
config **.videoConferenceRoom.app[0].startTime 0s
config **.videoConferenceRoom.app[0].maxEndToEndDelay 0.1s
config **.videoConferenceRoom.app[0].maxLossRate 0.05
config **.ftpUploadScience.numApps 1
config **.ftpUploadScience.app[0].typename TcpBasicClientApp
config **.ftpUploadScience.app[0].connectAddress "\"ftpServer\""
config **.ftpUploadScience.app[0].connectPort 3001
config **.ftpUploadScience.app[0].localPort 3000
config **.ftpUploadScience.app[0].thinkTime 0s
config **.ftpUploadScience.app[0].startTime 0s
config **.ftpUploadScience.app[0].requestLength 100MiB
config **.ftpUploadScience.app[0].replyLength 200B
config **.ftpUploadScience.app[0].reconnectInterval 1s
config **.ftpUploadScience.app[0].idleInterval 0s
config **.configurator.dumpAddresses true
config **.configurator.dumpTopology true
config **.configurator.dumpLinks true
config **.configurator.dumpRoutes true
config **.httpServer.numApps 1
config **.httpServer.app[0].typename TcpGenericServerApp
config **.httpServer.app[0].localPort 4000
config **.ftpServer.numApps 1
config **.ftpServer.app[0].typename TcpGenericServerApp
config **.ftpServer.app[0].localPort 3001
config **.ftpServer.app[0].replyDelay 0s

par LunarNetwork.wlanAP.ethg$o[0].channel typename "\"ned.DatarateChannel\""
par LunarNetwork.wlanAP.ethg$o[0].channel disabled false
attr mutable ""
par LunarNetwork.wlanAP.ethg$o[0].channel delay 0s
attr mutable ""
attr unit s
par LunarNetwork.wlanAP.ethg$o[0].channel datarate 1e+08bps
attr mutable ""
attr unit bps
par LunarNetwork.wlanAP.ethg$o[0].channel ber 0
attr mutable ""
par LunarNetwork.wlanAP.ethg$o[0].channel per 0
attr mutable ""
par LunarNetwork.scienceStationRouter.ethg$o[0].channel typename "\"ned.DatarateChannel\""
par LunarNetwork.scienceStationRouter.ethg$o[0].channel disabled false
attr mutable ""
par LunarNetwork.scienceStationRouter.ethg$o[0].channel delay 0s
attr mutable ""
attr unit s
par LunarNetwork.scienceStationRouter.ethg$o[0].channel datarate 1e+08bps
attr mutable ""
attr unit bps
par LunarNetwork.scienceStationRouter.ethg$o[0].channel ber 0
attr mutable ""
par LunarNetwork.scienceStationRouter.ethg$o[0].channel per 0
attr mutable ""
par LunarNetwork.scienceStationRouter.pppg$o[0].channel typename "\"ned.DatarateChannel\""
par LunarNetwork.scienceStationRouter.pppg$o[0].channel disabled false
attr mutable ""
par LunarNetwork.scienceStationRouter.pppg$o[0].channel delay 0.01s
attr mutable ""
attr unit s
par LunarNetwork.scienceStationRouter.pppg$o[0].channel datarate 1.2e+07bps
attr mutable ""
attr unit bps
par LunarNetwork.scienceStationRouter.pppg$o[0].channel ber 0
attr mutable ""
par LunarNetwork.scienceStationRouter.pppg$o[0].channel per 0
attr mutable ""
par LunarNetwork.controlStationRouter.pppg$o[0].channel typename "\"ned.DatarateChannel\""
par LunarNetwork.controlStationRouter.pppg$o[0].channel disabled false
attr mutable ""
par LunarNetwork.controlStationRouter.pppg$o[0].channel delay 0.01s
attr mutable ""
attr unit s
par LunarNetwork.controlStationRouter.pppg$o[0].channel datarate 1.2e+07bps
attr mutable ""
attr unit bps
par LunarNetwork.controlStationRouter.pppg$o[0].channel ber 0
attr mutable ""
par LunarNetwork.controlStationRouter.pppg$o[0].channel per 0
attr mutable ""
par LunarNetwork.cctvCamera.pppg$o[0].channel typename "\"ned.DatarateChannel\""
par LunarNetwork.cctvCamera.pppg$o[0].channel disabled false
attr mutable ""
par LunarNetwork.cctvCamera.pppg$o[0].channel delay 0s
attr mutable ""
attr unit s
par LunarNetwork.cctvCamera.pppg$o[0].channel datarate 1e+08bps
attr mutable ""
attr unit bps
par LunarNetwork.cctvCamera.pppg$o[0].channel ber 0
attr mutable ""
par LunarNetwork.cctvCamera.pppg$o[0].channel per 0
attr mutable ""
par LunarNetwork.scienceStationRouter.pppg$o[1].channel typename "\"ned.DatarateChannel\""
par LunarNetwork.scienceStationRouter.pppg$o[1].channel disabled false
attr mutable ""
par LunarNetwork.scienceStationRouter.pppg$o[1].channel delay 0s
attr mutable ""
attr unit s
par LunarNetwork.scienceStationRouter.pppg$o[1].channel datarate 1e+08bps
attr mutable ""
attr unit bps
par LunarNetwork.scienceStationRouter.pppg$o[1].channel ber 0
attr mutable ""
par LunarNetwork.scienceStationRouter.pppg$o[1].channel per 0
attr mutable ""
par LunarNetwork.cctvMonitoringStation.pppg$o[0].channel typename "\"ned.DatarateChannel\""
par LunarNetwork.cctvMonitoringStation.pppg$o[0].channel disabled false
attr mutable ""
par LunarNetwork.cctvMonitoringStation.pppg$o[0].channel delay 0s
attr mutable ""
attr unit s
par LunarNetwork.cctvMonitoringStation.pppg$o[0].channel datarate 1e+08bps
attr mutable ""
attr unit bps
par LunarNetwork.cctvMonitoringStation.pppg$o[0].channel ber 0
attr mutable ""
par LunarNetwork.cctvMonitoringStation.pppg$o[0].channel per 0
attr mutable ""
par LunarNetwork.controlStationRouter.pppg$o[1].channel typename "\"ned.DatarateChannel\""
par LunarNetwork.controlStationRouter.pppg$o[1].channel disabled false
attr mutable ""
par LunarNetwork.controlStationRouter.pppg$o[1].channel delay 0s
attr mutable ""
attr unit s
par LunarNetwork.controlStationRouter.pppg$o[1].channel datarate 1e+08bps
attr mutable ""
attr unit bps
par LunarNetwork.controlStationRouter.pppg$o[1].channel ber 0
attr mutable ""
par LunarNetwork.controlStationRouter.pppg$o[1].channel per 0
attr mutable ""
par LunarNetwork.videoConferenceRoom.pppg$o[0].channel typename "\"ned.DatarateChannel\""
par LunarNetwork.videoConferenceRoom.pppg$o[0].channel disabled false
attr mutable ""
par LunarNetwork.videoConferenceRoom.pppg$o[0].channel delay 0.005s
attr mutable ""
attr unit s
par LunarNetwork.videoConferenceRoom.pppg$o[0].channel datarate 1e+08bps
attr mutable ""
attr unit bps
par LunarNetwork.videoConferenceRoom.pppg$o[0].channel ber 0
attr mutable ""
par LunarNetwork.videoConferenceRoom.pppg$o[0].channel per 0
attr mutable ""
par LunarNetwork.controlStationRouter.pppg$o[2].channel typename "\"ned.DatarateChannel\""
par LunarNetwork.controlStationRouter.pppg$o[2].channel disabled false
attr mutable ""
par LunarNetwork.controlStationRouter.pppg$o[2].channel delay 0.005s
attr mutable ""
attr unit s
par LunarNetwork.controlStationRouter.pppg$o[2].channel datarate 1e+08bps
attr mutable ""
attr unit bps
par LunarNetwork.controlStationRouter.pppg$o[2].channel ber 0
attr mutable ""
par LunarNetwork.controlStationRouter.pppg$o[2].channel per 0
attr mutable ""
par LunarNetwork.httpServer.pppg$o[0].channel typename "\"ned.DatarateChannel\""
par LunarNetwork.httpServer.pppg$o[0].channel disabled false
attr mutable ""
par LunarNetwork.httpServer.pppg$o[0].channel delay 0.0238762s
attr mutable ""
attr unit s
par LunarNetwork.httpServer.pppg$o[0].channel datarate 1e+08bps
attr mutable ""
attr unit bps
par LunarNetwork.httpServer.pppg$o[0].channel ber 0
attr mutable ""
par LunarNetwork.httpServer.pppg$o[0].channel per 0
attr mutable ""
par LunarNetwork.controlStationRouter.pppg$o[3].channel typename "\"ned.DatarateChannel\""
par LunarNetwork.controlStationRouter.pppg$o[3].channel disabled false
attr mutable ""
par LunarNetwork.controlStationRouter.pppg$o[3].channel delay 0.0269568s
attr mutable ""
attr unit s
par LunarNetwork.controlStationRouter.pppg$o[3].channel datarate 1e+08bps
attr mutable ""
attr unit bps
par LunarNetwork.controlStationRouter.pppg$o[3].channel ber 0
attr mutable ""
par LunarNetwork.controlStationRouter.pppg$o[3].channel per 0
attr mutable ""
par LunarNetwork.ftpServer.pppg$o[0].channel typename "\"ned.DatarateChannel\""
par LunarNetwork.ftpServer.pppg$o[0].channel disabled false
attr mutable ""
par LunarNetwork.ftpServer.pppg$o[0].channel delay 0.0376779s
attr mutable ""
attr unit s
par LunarNetwork.ftpServer.pppg$o[0].channel datarate 1e+08bps
attr mutable ""
attr unit bps
par LunarNetwork.ftpServer.pppg$o[0].channel ber 0
attr mutable ""
par LunarNetwork.ftpServer.pppg$o[0].channel per 0
attr mutable ""
par LunarNetwork.controlStationRouter.pppg$o[4].channel typename "\"ned.DatarateChannel\""
par LunarNetwork.controlStationRouter.pppg$o[4].channel disabled false
attr mutable ""
par LunarNetwork.controlStationRouter.pppg$o[4].channel delay 0.0557881s
attr mutable ""
attr unit s
par LunarNetwork.controlStationRouter.pppg$o[4].channel datarate 1e+08bps
attr mutable ""
attr unit bps
par LunarNetwork.controlStationRouter.pppg$o[4].channel ber 0
attr mutable ""
par LunarNetwork.controlStationRouter.pppg$o[4].channel per 0
attr mutable ""
par LunarNetwork.configurator typename "\"inet.networklayer.configurator.ipv4.Ipv4NetworkConfigurator\""
par LunarNetwork.configurator minLinkWeight 0.001
par LunarNetwork.configurator configureIsolatedNetworksSeparatly false
par LunarNetwork.configurator config "<config>...</config> at content:1"
par LunarNetwork.configurator assignAddresses true
par LunarNetwork.configurator assignUniqueAddresses true
par LunarNetwork.configurator assignDisjunctSubnetAddresses true
par LunarNetwork.configurator addStaticRoutes true
par LunarNetwork.configurator addDefaultRoutes true
par LunarNetwork.configurator addSubnetRoutes true
par LunarNetwork.configurator addDirectRoutes true
par LunarNetwork.configurator optimizeRoutes true
par LunarNetwork.configurator dumpTopology true
par LunarNetwork.configurator dumpLinks true
par LunarNetwork.configurator dumpAddresses true
par LunarNetwork.configurator dumpRoutes true
par LunarNetwork.configurator dumpConfig "\"\""
par LunarNetwork.radioMedium.propagation typename "\"inet.physicallayer.wireless.common.propagation.ConstantSpeedPropagation\""
par LunarNetwork.radioMedium.propagation propagationSpeed 2.99792e+08mps
attr unit mps
par LunarNetwork.radioMedium.propagation ignoreMovementDuringTransmission true
par LunarNetwork.radioMedium.propagation ignoreMovementDuringPropagation true
par LunarNetwork.radioMedium.propagation ignoreMovementDuringReception true
scalar LunarNetwork.radioMedium.propagation "Arrival computation count" 4525044
par LunarNetwork.radioMedium.analogModel typename "\"inet.physicallayer.wireless.common.analogmodel.packetlevel.ScalarAnalogModel\""
par LunarNetwork.radioMedium.analogModel ignorePartialInterference false
par LunarNetwork.radioMedium.backgroundNoise typename "\"inet.physicallayer.wireless.common.backgroundnoise.IsotropicScalarBackgroundNoise\""
par LunarNetwork.radioMedium.backgroundNoise power -110dBm
attr unit dBm
par LunarNetwork.radioMedium.backgroundNoise bandwidth "nan Hz"
attr unit Hz
par LunarNetwork.radioMedium.pathLoss typename "\"inet.physicallayer.wireless.common.pathloss.FreeSpacePathLoss\""
par LunarNetwork.radioMedium.pathLoss alpha 2
par LunarNetwork.radioMedium.pathLoss systemLoss 0dB
attr unit dB
par LunarNetwork.radioMedium.mediumLimitCache typename "\"inet.physicallayer.wireless.common.medium.MediumLimitCache\""
par LunarNetwork.radioMedium.mediumLimitCache centerFrequency 2.4e+09Hz
attr unit Hz
par LunarNetwork.radioMedium.mediumLimitCache maxSpeed "nan mps"
attr unit mps
par LunarNetwork.radioMedium.mediumLimitCache maxTransmissionPower "nan W"
attr unit W
par LunarNetwork.radioMedium.mediumLimitCache minInterferencePower -110dBm
attr unit dBm
par LunarNetwork.radioMedium.mediumLimitCache minReceptionPower -85dBm
attr unit dBm
par LunarNetwork.radioMedium.mediumLimitCache maxAntennaGain 0dB
attr unit dB
par LunarNetwork.radioMedium.mediumLimitCache minInterferenceTime 1e-12s
attr unit s
par LunarNetwork.radioMedium.mediumLimitCache maxTransmissionDuration 0.01s
attr unit s
par LunarNetwork.radioMedium.mediumLimitCache maxCommunicationRange "nan m"
attr unit m
par LunarNetwork.radioMedium.mediumLimitCache maxInterferenceRange "nan m"
attr unit m
par LunarNetwork.radioMedium.communicationCache typename "\"inet.physicallayer.wireless.common.communicationcache.VectorCommunicationCache\""
par LunarNetwork.radioMedium typename "\"inet.physicallayer.wireless.ieee80211.packetlevel.Ieee80211ScalarRadioMedium\""
par LunarNetwork.radioMedium physicalEnvironmentModule "\"physicalEnvironment\""
par LunarNetwork.radioMedium signalAnalogRepresentation "\"scalar\""
attr enum unitDisk,scalar,dimensional
par LunarNetwork.radioMedium rangeFilter "\"\""
par LunarNetwork.radioMedium radioModeFilter false
par LunarNetwork.radioMedium listeningFilter false
par LunarNetwork.radioMedium macAddressFilter false
par LunarNetwork.radioMedium recordTransmissionLog false
par LunarNetwork.radioMedium recordReceptionLog false
scalar LunarNetwork.radioMedium "transmission count" 377087
scalar LunarNetwork.radioMedium "signal send count" 4525044
scalar LunarNetwork.radioMedium "reception computation count" 4525044
scalar LunarNetwork.radioMedium "interference computation count" 13940513
scalar LunarNetwork.radioMedium "reception decision computation count" 4518133
scalar LunarNetwork.radioMedium "listening decision computation count" 4898549
scalar LunarNetwork.radioMedium "reception cache hit" 85.709858181906
attr unit %
scalar LunarNetwork.radioMedium "interference cache hit" 66.666666666667
attr unit %
scalar LunarNetwork.radioMedium "noise cache hit" 0
attr unit %
scalar LunarNetwork.radioMedium "snir cache hit" 50
attr unit %
scalar LunarNetwork.radioMedium "reception decision cache hit" 50
attr unit %
scalar LunarNetwork.radioMedium "reception result cache hit" 0
attr unit %
par LunarNetwork.wlanAP.radioIn[0].channel typename "\"ned.IdealChannel\""
par LunarNetwork.wlanAP.eth[0].phys$o.channel typename "\"ned.IdealChannel\""
par LunarNetwork.wlanAP.ethg$i[0].channel typename "\"ned.IdealChannel\""
par LunarNetwork.wlanAP.interfaceTable typename "\"inet.networklayer.common.InterfaceTable\""
par LunarNetwork.wlanAP.interfaceTable displayAddresses false
par LunarNetwork.wlanAP.macTable typename "\"inet.linklayer.ethernet.common.MacForwardingTable\""
par LunarNetwork.wlanAP.macTable agingTime 120s
attr unit s
par LunarNetwork.wlanAP.macTable forwardingTable []
attr mutable ""
par LunarNetwork.wlanAP.macTable forwardingTableFile "\"\""
par LunarNetwork.wlanAP.macTable interfaceTableModule "\"LunarNetwork.wlanAP.interfaceTable\""
par LunarNetwork.wlanAP.macTable displayStringTextFormat "\"addr: %a\\nvlan: %v\""
par LunarNetwork.wlanAP.mobility typename "\"inet.mobility.static.StationaryMobility\""
par LunarNetwork.wlanAP.mobility subjectModule "\"^\""
par LunarNetwork.wlanAP.mobility coordinateSystemModule "\"\""
par LunarNetwork.wlanAP.mobility displayStringTextFormat "\"p: %p\\nv: %v\""
attr mutable ""
par LunarNetwork.wlanAP.mobility updateDisplayString true
par LunarNetwork.wlanAP.mobility constraintAreaMinX 0m
attr unit m
par LunarNetwork.wlanAP.mobility constraintAreaMinY 0m
attr unit m
par LunarNetwork.wlanAP.mobility constraintAreaMinZ 0m
attr unit m
par LunarNetwork.wlanAP.mobility constraintAreaMaxX 600m
attr unit m
par LunarNetwork.wlanAP.mobility constraintAreaMaxY 400m
attr unit m
par LunarNetwork.wlanAP.mobility constraintAreaMaxZ 0m
attr unit m
par LunarNetwork.wlanAP.mobility initialX 10m
attr unit m
par LunarNetwork.wlanAP.mobility initialY 10m
attr unit m
par LunarNetwork.wlanAP.mobility initialZ 0m
attr unit m
par LunarNetwork.wlanAP.mobility initialLatitude "nan deg"
attr unit deg
par LunarNetwork.wlanAP.mobility initialLongitude "nan deg"
attr unit deg
par LunarNetwork.wlanAP.mobility initialAltitude 0m
attr unit m
par LunarNetwork.wlanAP.mobility initialHeading 0deg
attr unit deg
par LunarNetwork.wlanAP.mobility initialElevation 0deg
attr unit deg
par LunarNetwork.wlanAP.mobility initialBank 0deg
attr unit deg
par LunarNetwork.wlanAP.mobility initFromDisplayString false
par LunarNetwork.wlanAP.mobility updateFromDisplayString true
par LunarNetwork.wlanAP.bridging typename "\"inet.linklayer.ieee8021d.relay.Ieee8021dRelay\""
par LunarNetwork.wlanAP.bridging macTableModule "\"LunarNetwork.wlanAP.macTable\""
par LunarNetwork.wlanAP.bridging interfaceTableModule "\"LunarNetwork.wlanAP.interfaceTable\""
par LunarNetwork.wlanAP.bridging displayStringTextFormat "\"proc: %p\\ndisc: %d\""
scalar LunarNetwork.wlanAP.bridging "processed frames" 0
scalar LunarNetwork.wlanAP.bridging "discarded frames" 0
scalar LunarNetwork.wlanAP.bridging "number of received BPDUs from STP module" 0
scalar LunarNetwork.wlanAP.bridging "number of received frames from network (including BPDUs)" 127104
scalar LunarNetwork.wlanAP.bridging "number of dropped frames (including BPDUs)" 0
scalar LunarNetwork.wlanAP.bridging "number of delivered BPDUs to the STP module" 0
scalar LunarNetwork.wlanAP.bridging "number of dispatched BPDU frames to the network" 0
scalar LunarNetwork.wlanAP.bridging "number of dispatched non-BDPU frames to the network" 0
scalar LunarNetwork.wlanAP.bridging packetDropped:count 0
attr interpolationmode none
attr recordingmode count
attr title "packets dropped, count"
scalar LunarNetwork.wlanAP.bridging packetDropped:sum(packetBytes) 0
attr interpolationmode none
attr recordingmode sum(packetBytes)
attr title "packets dropped, sum(packetBytes)"
par LunarNetwork.wlanAP.bl typename "\"inet.common.MessageDispatcher\""
par LunarNetwork.wlanAP.bl displayStringTextFormat "\"processed %p pk (%l)\""
par LunarNetwork.wlanAP.bl forwardServiceRegistration true
par LunarNetwork.wlanAP.bl forwardProtocolRegistration true
par LunarNetwork.wlanAP.ethernet typename "\"inet.linklayer.ethernet.basic.EthernetEncapsulation\""
par LunarNetwork.wlanAP.ethernet registerProtocol true
par LunarNetwork.wlanAP.ethernet interfaceTableModule "\"LunarNetwork.wlanAP.interfaceTable\""
par LunarNetwork.wlanAP.ethernet fcsMode "\"declared\""
attr enum declared,computed
par LunarNetwork.wlanAP.ethernet stopOperationExtraTime -1s
attr unit s
par LunarNetwork.wlanAP.ethernet stopOperationTimeout 2s
attr unit s
scalar LunarNetwork.wlanAP.ethernet pauseSent:count 0
attr recordingmode count
attr title "pause sent, count"
scalar LunarNetwork.wlanAP.ethernet pauseSent:sum 0
attr recordingmode sum
attr title "pause sent, sum"
scalar LunarNetwork.wlanAP.ethernet decapPk:count 111034
attr interpolationmode none
attr recordingmode count
attr source decapPk
attr title "packets decapsulated, count"
scalar LunarNetwork.wlanAP.ethernet decapPk:sum(packetBytes) 88460554
attr interpolationmode none
attr recordingmode sum(packetBytes)
attr source decapPk
attr title "packets decapsulated, sum(packetBytes)"
scalar LunarNetwork.wlanAP.ethernet encapPk:count 111034
attr interpolationmode none
attr recordingmode count
attr source encapPk
attr title "packets encapsulated, count"
scalar LunarNetwork.wlanAP.ethernet encapPk:sum(packetBytes) 88460554
attr interpolationmode none
attr recordingmode sum(packetBytes)
attr source encapPk
attr title "packets encapsulated, sum(packetBytes)"
par LunarNetwork.wlanAP.li typename "\"inet.common.MessageDispatcher\""
par LunarNetwork.wlanAP.li displayStringTextFormat "\"processed %p pk (%l)\""
par LunarNetwork.wlanAP.li forwardServiceRegistration true
par LunarNetwork.wlanAP.li forwardProtocolRegistration true
par LunarNetwork.wlanAP.wlan[0].radioIn.channel typename "\"ned.IdealChannel\""
par LunarNetwork.wlanAP.wlan[0].llc.upperLayerOut.channel typename "\"ned.IdealChannel\""
par LunarNetwork.wlanAP.wlan[0].upperLayerIn.channel typename "\"ned.IdealChannel\""
par LunarNetwork.wlanAP.wlan[0].mib typename "\"inet.linklayer.ieee80211.mib.Ieee80211Mib\""
par LunarNetwork.wlanAP.wlan[0].llc typename "\"inet.linklayer.ieee80211.portal.Ieee80211Portal\""
par LunarNetwork.wlanAP.wlan[0].llc fcsMode "\"declared\""
attr enum declared,computed
par LunarNetwork.wlanAP.wlan[0].mgmt typename "\"inet.linklayer.ieee80211.mgmt.Ieee80211MgmtAp\""
par LunarNetwork.wlanAP.wlan[0].mgmt ssid "\"SSID\""
par LunarNetwork.wlanAP.wlan[0].mgmt beaconInterval 0.1s
attr unit s
par LunarNetwork.wlanAP.wlan[0].mgmt numAuthSteps 4
par LunarNetwork.wlanAP.wlan[0].mgmt interfaceTableModule "\"LunarNetwork.wlanAP.interfaceTable\""
par LunarNetwork.wlanAP.wlan[0].mgmt radioModule "\"^.radio\""
par LunarNetwork.wlanAP.wlan[0].mgmt mibModule "\"LunarNetwork.wlanAP.wlan[0].mib\""
par LunarNetwork.wlanAP.wlan[0].mgmt macModule "\"LunarNetwork.wlanAP.wlan[0].mac\""
par LunarNetwork.wlanAP.wlan[0].mac.dcf.channelAccess.pendingQueue typename "\"inet.linklayer.ieee80211.mac.queue.PendingQueue\""
par LunarNetwork.wlanAP.wlan[0].mac.dcf.channelAccess.pendingQueue displayStringTextFormat "\"contains %p pk (%l) pushed %u\\npulled %o removed %r dropped %d\""
par LunarNetwork.wlanAP.wlan[0].mac.dcf.channelAccess.pendingQueue packetCapacity 14
par LunarNetwork.wlanAP.wlan[0].mac.dcf.channelAccess.pendingQueue dataCapacity -1b
attr unit b
par LunarNetwork.wlanAP.wlan[0].mac.dcf.channelAccess.pendingQueue dropperClass "\"inet::queueing::PacketAtCollectionEndDropper\""
par LunarNetwork.wlanAP.wlan[0].mac.dcf.channelAccess.pendingQueue comparatorClass "\"inet::ieee80211::MgmtOverDataComparator\""
par LunarNetwork.wlanAP.wlan[0].mac.dcf.channelAccess.pendingQueue bufferModule "\"\""
scalar LunarNetwork.wlanAP.wlan[0].mac.dcf.channelAccess.pendingQueue queueLength:last 2
attr autoWarmupFilter false
attr interpolationmode sample-hold
attr recordingmode last
attr source "warmup(atomic(constant0(packetPushEnded) + count(packetPushStarted) - count(packetPulled) - count(packetRemoved) - count(packetDropped)))"
attr title "queue length, last"
attr unit pk
scalar LunarNetwork.wlanAP.wlan[0].mac.dcf.channelAccess.pendingQueue queueLength:max 14
attr autoWarmupFilter false
attr interpolationmode sample-hold
attr recordingmode max
attr source "warmup(atomic(constant0(packetPushEnded) + count(packetPushStarted) - count(packetPulled) - count(packetRemoved) - count(packetDropped)))"
attr title "queue length, max"
attr unit pk
scalar LunarNetwork.wlanAP.wlan[0].mac.dcf.channelAccess.pendingQueue queueLength:timeavg 0.36305900971375
attr autoWarmupFilter false
attr interpolationmode sample-hold
attr recordingmode timeavg
attr source "warmup(atomic(constant0(packetPushEnded) + count(packetPushStarted) - count(packetPulled) - count(packetRemoved) - count(packetDropped)))"
attr title "queue length, timeavg"
attr unit pk
scalar LunarNetwork.wlanAP.wlan[0].mac.dcf.channelAccess.pendingQueue queueBitLength:last 12944
attr autoWarmupFilter false
attr interpolationmode sample-hold
attr recordingmode last
attr source "warmup(atomic(constant0(packetPushEnded) + sum(packetLength(packetPushStarted)) - sum(packetLength(packetPulled)) - sum(packetLength(packetRemoved)) - sum(packetLength(packetDropped))))"
attr title "queue bit length, last"
attr unit b
scalar LunarNetwork.wlanAP.wlan[0].mac.dcf.channelAccess.pendingQueue queueBitLength:max 160400
attr autoWarmupFilter false
attr interpolationmode sample-hold
attr recordingmode max
attr source "warmup(atomic(constant0(packetPushEnded) + sum(packetLength(packetPushStarted)) - sum(packetLength(packetPulled)) - sum(packetLength(packetRemoved)) - sum(packetLength(packetDropped))))"
attr title "queue bit length, max"
attr unit b
scalar LunarNetwork.wlanAP.wlan[0].mac.dcf.channelAccess.pendingQueue queueBitLength:timeavg 1892.4761393022
attr autoWarmupFilter false
attr interpolationmode sample-hold
attr recordingmode timeavg
attr source "warmup(atomic(constant0(packetPushEnded) + sum(packetLength(packetPushStarted)) - sum(packetLength(packetPulled)) - sum(packetLength(packetRemoved)) - sum(packetLength(packetDropped))))"
attr title "queue bit length, timeavg"
attr unit b
statistic LunarNetwork.wlanAP.wlan[0].mac.dcf.channelAccess.pendingQueue queueingTime:histogram
field count 55809
field mean 0.00058548227743893
field stddev 0.0014901008624457
field min 0
field max 0.015731913436
field sum 32.67518042159
field sqrsum 0.14304685463218
attr interpolationmode none
attr recordingmode histogram
attr source queueingTime(packetPulled)
attr title "queueing times"
attr unit s
bin	-inf	0
bin	0	41365
bin	0.00032	4566
bin	0.00064	1856
bin	0.00096	1133
bin	0.00128	874
bin	0.0016	670
bin	0.00192	665
bin	0.00224	461
bin	0.00256	422
bin	0.00288	389
bin	0.0032	339
bin	0.00352	319
bin	0.00384	275
bin	0.00416	266
bin	0.00448	264
bin	0.0048	231
bin	0.00512	196
bin	0.00544	182
bin	0.00576	177
bin	0.00608	134
bin	0.0064	146
bin	0.00672	114
bin	0.00704	112
bin	0.00736	94
bin	0.00768	103
bin	0.008	76
bin	0.00832	97
bin	0.00864	63
bin	0.00896	41
bin	0.00928	38
bin	0.0096	31
bin	0.00992	19
bin	0.01024	15
bin	0.01056	15
bin	0.01088	5
bin	0.0112	4
bin	0.01152	5
bin	0.01184	5
bin	0.01216	3
bin	0.01248	6
bin	0.0128	3
bin	0.01312	4
bin	0.01344	4
bin	0.01376	5
bin	0.01408	4
bin	0.0144	5
bin	0.01472	3
bin	0.01504	2
bin	0.01536	2
bin	0.01568	1
bin	0.016	0
scalar LunarNetwork.wlanAP.wlan[0].mac.dcf.channelAccess.pendingQueue outgoingPackets:count 55809
attr recordingmode count
attr source packetPulled
attr title "outgoing packets, count"
attr unit pk
scalar LunarNetwork.wlanAP.wlan[0].mac.dcf.channelAccess.pendingQueue outgoingPacketLengths:sum 316835744
attr interpolationmode none
attr recordingmode sum
attr source packetLength(packetPulled)
attr title "outgoing packet lengths, sum"
attr unit b
statistic LunarNetwork.wlanAP.wlan[0].mac.dcf.channelAccess.pendingQueue outgoingPacketLengths:histogram
field count 55809
field mean 5677.1442598864
field stddev 5740.1518221152
field min 384
field max 12288
field sum 316835744
field sqrsum 3637559156224
attr interpolationmode none
attr recordingmode histogram
attr source packetLength(packetPulled)
attr title "outgoing packet lengths"
attr unit b
bin	-inf	0
bin	0	0
bin	200	900
bin	400	0
bin	600	30667
bin	800	0
bin	1000	0
bin	1200	0
bin	1400	0
bin	1600	0
bin	1800	0
bin	2000	0
bin	2200	0
bin	2400	0
bin	2600	0
bin	2800	0
bin	3000	0
bin	3200	0
bin	3400	0
bin	3600	0
bin	3800	0
bin	4000	0
bin	4200	0
bin	4400	0
bin	4600	0
bin	4800	0
bin	5000	0
bin	5200	0
bin	5400	0
bin	5600	0
bin	5800	0
bin	6000	0
bin	6200	0
bin	6400	0
bin	6600	0
bin	6800	0
bin	7000	0
bin	7200	0
bin	7400	0
bin	7600	0
bin	7800	0
bin	8000	0
bin	8200	0
bin	8400	0
bin	8600	0
bin	8800	0
bin	9000	0
bin	9200	0
bin	9400	0
bin	9600	0
bin	9800	0
bin	10000	0
bin	10200	0
bin	10400	0
bin	10600	0
bin	10800	0
bin	11000	0
bin	11200	0
bin	11400	0
bin	11600	2217
bin	11800	50
bin	12000	0
bin	12200	21975
bin	12400	0
bin	12600	0
bin	12800	0
bin	13000	0
bin	13200	0
bin	13400	0
bin	13600	0
bin	13800	0
bin	14000	0
bin	14200	0
bin	14400	0
bin	14600	0
bin	14800	0
bin	15000	0
bin	15200	0
statistic LunarNetwork.wlanAP.wlan[0].mac.dcf.channelAccess.pendingQueue flowQueueingTime:histogram
field count 0
field mean -nan
field stddev -nan
field min -nan
field max -nan
field sum 0
field sqrsum 0
attr interpolationmode none
attr recordingmode histogram
attr source queueingTime(demuxFlow(packetPulled))
attr title "flow queueing times"
attr unit s
bin	-inf	0
bin	0	0
bin	1	0
scalar LunarNetwork.wlanAP.wlan[0].mac.dcf.channelAccess.pendingQueue incomingPackets:count 56309
attr recordingmode count
attr source packetPushStarted
attr title "incoming packets, count"
attr unit pk
scalar LunarNetwork.wlanAP.wlan[0].mac.dcf.channelAccess.pendingQueue incomingPacketLengths:sum 317291024
attr interpolationmode none
attr recordingmode sum
attr source packetLength(packetPushStarted)
attr title "incoming packet lengths, sum"
attr unit b
statistic LunarNetwork.wlanAP.wlan[0].mac.dcf.channelAccess.pendingQueue incomingPacketLengths:histogram
field count 56309
field mean 5634.8190164983
field stddev 5734.3096870749
field min 384
field max 12288
field sum 317291024
field sqrsum 3639414471424
attr interpolationmode none
attr recordingmode histogram
attr source packetLength(packetPushStarted)
attr title "incoming packet lengths"
attr unit b
bin	-inf	0
bin	0	0
bin	200	900
bin	400	0
bin	600	31156
bin	800	0
bin	1000	0
bin	1200	0
bin	1400	0
bin	1600	0
bin	1800	0
bin	2000	0
bin	2200	0
bin	2400	0
bin	2600	0
bin	2800	0
bin	3000	0
bin	3200	0
bin	3400	0
bin	3600	0
bin	3800	0
bin	4000	0
bin	4200	0
bin	4400	0
bin	4600	0
bin	4800	0
bin	5000	0
bin	5200	0
bin	5400	0
bin	5600	0
bin	5800	0
bin	6000	0
bin	6200	0
bin	6400	0
bin	6600	0
bin	6800	0
bin	7000	0
bin	7200	0
bin	7400	0
bin	7600	0
bin	7800	0
bin	8000	0
bin	8200	0
bin	8400	0
bin	8600	0
bin	8800	0
bin	9000	0
bin	9200	0
bin	9400	0
bin	9600	0
bin	9800	0
bin	10000	0
bin	10200	0
bin	10400	0
bin	10600	0
bin	10800	0
bin	11000	0
bin	11200	0
bin	11400	0
bin	11600	2218
bin	11800	50
bin	12000	0
bin	12200	21985
bin	12400	0
bin	12600	0
bin	12800	0
bin	13000	0
bin	13200	0
bin	13400	0
bin	13600	0
bin	13800	0
bin	14000	0
bin	14200	0
bin	14400	0
bin	14600	0
bin	14800	0
bin	15000	0
bin	15200	0
scalar LunarNetwork.wlanAP.wlan[0].mac.dcf.channelAccess.pendingQueue droppedPacketsQueueOverflow:count 500
attr interpolationmode none
attr recordingmode count
attr source packetDropReasonIsQueueOverflow(packetDropped)
attr title "dropped packets: queue overflow, count"
attr unit pk
scalar LunarNetwork.wlanAP.wlan[0].mac.dcf.channelAccess.pendingQueue droppedPacketLengthsQueueOverflow:sum 443648
attr interpolationmode none
attr recordingmode sum
attr source packetLength(packetDropReasonIsQueueOverflow(packetDropped))
attr title "dropped packet lengths: queue overflow, sum"
attr unit b
par LunarNetwork.wlanAP.wlan[0].mac.dcf.channelAccess.inProgressFrames typename "\"inet.linklayer.ieee80211.mac.queue.InProgressFrames\""
par LunarNetwork.wlanAP.wlan[0].mac.dcf.channelAccess.inProgressFrames pendingQueueModule "\"^.pendingQueue\""
par LunarNetwork.wlanAP.wlan[0].mac.dcf.channelAccess.inProgressFrames originatorMacDataServiceModule "\"^.^.originatorMacDataService\""
par LunarNetwork.wlanAP.wlan[0].mac.dcf.channelAccess.inProgressFrames ackHandlerModule "\"^.^.ackHandler\""
statistic LunarNetwork.wlanAP.wlan[0].mac.dcf.channelAccess.inProgressFrames queueingTime:histogram
field count 77786
field mean 0.00034792915447275
field stddev 0.00027600929678511
field min 4.6e-05
field max 0.004060319314
field sum 27.064017209817
field sqrsum 0.015342109970208
attr interpolationmode none
attr recordingmode histogram
attr source queueingTime(packetDequeued)
attr title "queueing times"
bin	-inf	0
bin	0	731
bin	8e-05	20414
bin	0.00016	1189
bin	0.00024	22476
bin	0.00032	18634
bin	0.0004	2004
bin	0.00048	1750
bin	0.00056	1098
bin	0.00064	2188
bin	0.00072	2696
bin	0.0008	621
bin	0.00088	891
bin	0.00096	592
bin	0.00104	510
bin	0.00112	535
bin	0.0012	512
bin	0.00128	86
bin	0.00136	167
bin	0.00144	133
bin	0.00152	109
bin	0.0016	144
bin	0.00168	39
bin	0.00176	46
bin	0.00184	43
bin	0.00192	40
bin	0.002	27
bin	0.00208	34
bin	0.00216	10
bin	0.00224	15
bin	0.00232	7
bin	0.0024	12
bin	0.00248	7
bin	0.00256	8
bin	0.00264	4
bin	0.00272	1
bin	0.0028	3
bin	0.00288	3
bin	0.00296	4
bin	0.00304	1
bin	0.00312	1
bin	0.0032	0
bin	0.00328	0
bin	0.00336	0
bin	0.00344	0
bin	0.00352	0
bin	0.0036	0
bin	0.00368	0
bin	0.00376	0
bin	0.00384	0
bin	0.00392	0
bin	0.004	1
bin	0.00408	0
scalar LunarNetwork.wlanAP.wlan[0].mac.dcf.channelAccess.inProgressFrames queueLength:max 3
attr autoWarmupFilter false
attr interpolationmode sample-hold
attr recordingmode max
attr source "warmup(count(packetEnqueued) - count(packetDequeued))"
attr title "queue length, max"
scalar LunarNetwork.wlanAP.wlan[0].mac.dcf.channelAccess.inProgressFrames queueLength:timeavg 0.30070476795965
attr autoWarmupFilter false
attr interpolationmode sample-hold
attr recordingmode timeavg
attr source "warmup(count(packetEnqueued) - count(packetDequeued))"
attr title "queue length, timeavg"
par LunarNetwork.wlanAP.wlan[0].mac.dcf.channelAccess.contention typename "\"inet.linklayer.ieee80211.mac.contention.Contention\""
par LunarNetwork.wlanAP.wlan[0].mac.dcf.channelAccess.contention initialChannelBusy true
par LunarNetwork.wlanAP.wlan[0].mac.dcf.channelAccess.contention backoffOptimization true
scalar LunarNetwork.wlanAP.wlan[0].mac.dcf.channelAccess.contention channelAccessGranted:count 56040
attr recordingmode count
attr title "channel access granted, count"
scalar LunarNetwork.wlanAP.wlan[0].mac.dcf.channelAccess.contention stateChanged:count 894078
attr enum IDLE,DEFER,IFS_AND_BACKOFF
attr interpolationmode none
attr recordingmode count
attr title "contention state changed, count"
attr type enum
par LunarNetwork.wlanAP.wlan[0].mac.dcf.channelAccess typename "\"inet.linklayer.ieee80211.mac.channelaccess.Dcaf\""
par LunarNetwork.wlanAP.wlan[0].mac.dcf.channelAccess difsn -1
par LunarNetwork.wlanAP.wlan[0].mac.dcf.channelAccess cwMin 7
par LunarNetwork.wlanAP.wlan[0].mac.dcf.channelAccess cwMax -1
par LunarNetwork.wlanAP.wlan[0].mac.dcf.channelAccess rxModule "\"^.^.rx\""
scalar LunarNetwork.wlanAP.wlan[0].mac.dcf.channelAccess channelOwnershipChanged:count 112081
attr interpolationmode sample-hold
attr recordingmode count
attr title "channel ownership, count"
par LunarNetwork.wlanAP.wlan[0].mac.dcf.originatorMacDataService.fragmentationPolicy typename "\"inet.linklayer.ieee80211.mac.fragmentation.BasicFragmentationPolicy\""
par LunarNetwork.wlanAP.wlan[0].mac.dcf.originatorMacDataService.fragmentationPolicy fragmentationThreshold 1500B
attr unit B
par LunarNetwork.wlanAP.wlan[0].mac.dcf.originatorMacDataService typename "\"inet.linklayer.ieee80211.mac.originator.OriginatorMacDataService\""
scalar LunarNetwork.wlanAP.wlan[0].mac.dcf.originatorMacDataService packetAggregated:count 0
attr recordingmode count
attr title "packets aggregated, count"
scalar LunarNetwork.wlanAP.wlan[0].mac.dcf.originatorMacDataService packetFragmented:count 21975
attr recordingmode count
attr title "packets fragmented, count"
par LunarNetwork.wlanAP.wlan[0].mac.dcf.recipientMacDataService typename "\"inet.linklayer.ieee80211.mac.recipient.RecipientMacDataService\""
scalar LunarNetwork.wlanAP.wlan[0].mac.dcf.recipientMacDataService packetDeaggregated:count 0
attr recordingmode count
attr title "packets deaggregated, count"
scalar LunarNetwork.wlanAP.wlan[0].mac.dcf.recipientMacDataService packetDefragmented:count 55625
attr recordingmode count
attr title "packets defragmented, count"
scalar LunarNetwork.wlanAP.wlan[0].mac.dcf.recipientMacDataService packetDropDuplicateDetected:count 0
attr interpolationmode none
attr recordingmode count
attr source packetDropReasonIsDuplicateDetected(packetDropped)
attr title "packet drops: duplicate detected, count"
scalar LunarNetwork.wlanAP.wlan[0].mac.dcf.recipientMacDataService packetDropDuplicateDetected:sum(packetBytes) 0
attr interpolationmode none
attr recordingmode sum(packetBytes)
attr source packetDropReasonIsDuplicateDetected(packetDropped)
attr title "packet drops: duplicate detected, sum(packetBytes)"
par LunarNetwork.wlanAP.wlan[0].mac.dcf.rateSelection typename "\"inet.linklayer.ieee80211.mac.rateselection.RateSelection\""
par LunarNetwork.wlanAP.wlan[0].mac.dcf.rateSelection rateControlModule "\"^.rateControl\""
par LunarNetwork.wlanAP.wlan[0].mac.dcf.rateSelection multicastFrameBitrate -1bps
attr unit bps
par LunarNetwork.wlanAP.wlan[0].mac.dcf.rateSelection responseAckFrameBitrate -1bps
attr unit bps
par LunarNetwork.wlanAP.wlan[0].mac.dcf.rateSelection responseCtsFrameBitrate -1bps
attr unit bps
par LunarNetwork.wlanAP.wlan[0].mac.dcf.rateSelection dataFrameBitrate 5.4e+07bps
attr unit bps
par LunarNetwork.wlanAP.wlan[0].mac.dcf.rateSelection dataFrameBandwidth "nan Hz"
attr unit Hz
par LunarNetwork.wlanAP.wlan[0].mac.dcf.rateSelection dataFrameNumSpatialStreams -1
par LunarNetwork.wlanAP.wlan[0].mac.dcf.rateSelection mgmtFrameBitrate -1bps
attr unit bps
par LunarNetwork.wlanAP.wlan[0].mac.dcf.rateSelection controlFrameBitrate -1bps
attr unit bps
par LunarNetwork.wlanAP.wlan[0].mac.dcf.recoveryProcedure typename "\"inet.linklayer.ieee80211.mac.originator.NonQosRecoveryProcedure\""
par LunarNetwork.wlanAP.wlan[0].mac.dcf.recoveryProcedure cwCalculatorModule "\"^.channelAccess\""
par LunarNetwork.wlanAP.wlan[0].mac.dcf.recoveryProcedure rtsPolicyModule "\"^.rtsPolicy\""
par LunarNetwork.wlanAP.wlan[0].mac.dcf.recoveryProcedure shortRetryLimit 7
par LunarNetwork.wlanAP.wlan[0].mac.dcf.recoveryProcedure longRetryLimit 7
scalar LunarNetwork.wlanAP.wlan[0].mac.dcf.recoveryProcedure retryLimitReached:count 0
attr recordingmode count
attr title "retry limit reached, count"
par LunarNetwork.wlanAP.wlan[0].mac.dcf.originatorProtectionMechanism typename "\"inet.linklayer.ieee80211.mac.protectionmechanism.OriginatorProtectionMechanism\""
par LunarNetwork.wlanAP.wlan[0].mac.dcf.originatorProtectionMechanism rateSelectionModule "\"^.rateSelection\""
par LunarNetwork.wlanAP.wlan[0].mac.dcf.ackHandler typename "\"inet.linklayer.ieee80211.mac.originator.AckHandler\""
par LunarNetwork.wlanAP.wlan[0].mac.dcf.originatorAckPolicy typename "\"inet.linklayer.ieee80211.mac.originator.OriginatorAckPolicy\""
par LunarNetwork.wlanAP.wlan[0].mac.dcf.originatorAckPolicy rateSelectionModule "\"^.rateSelection\""
par LunarNetwork.wlanAP.wlan[0].mac.dcf.originatorAckPolicy ackTimeout -1s
attr unit s
par LunarNetwork.wlanAP.wlan[0].mac.dcf.recipientAckPolicy typename "\"inet.linklayer.ieee80211.mac.recipient.RecipientAckPolicy\""
par LunarNetwork.wlanAP.wlan[0].mac.dcf.recipientAckPolicy rateSelectionModule "\"^.rateSelection\""
par LunarNetwork.wlanAP.wlan[0].mac.dcf.rtsPolicy typename "\"inet.linklayer.ieee80211.mac.originator.RtsPolicy\""
par LunarNetwork.wlanAP.wlan[0].mac.dcf.rtsPolicy rateSelectionModule "\"^.rateSelection\""
par LunarNetwork.wlanAP.wlan[0].mac.dcf.rtsPolicy ctsTimeout -1s
attr unit s
par LunarNetwork.wlanAP.wlan[0].mac.dcf.rtsPolicy rtsThreshold 3000B
attr unit B
par LunarNetwork.wlanAP.wlan[0].mac.dcf.ctsPolicy typename "\"inet.linklayer.ieee80211.mac.recipient.CtsPolicy\""
par LunarNetwork.wlanAP.wlan[0].mac.dcf.ctsPolicy rxModule "\"^.^.rx\""
par LunarNetwork.wlanAP.wlan[0].mac.dcf.ctsPolicy rateSelectionModule "\"^.rateSelection\""
par LunarNetwork.wlanAP.wlan[0].mac.dcf typename "\"inet.linklayer.ieee80211.mac.coordinationfunction.Dcf\""
par LunarNetwork.wlanAP.wlan[0].mac.dcf rxModule "\"^.rx\""
par LunarNetwork.wlanAP.wlan[0].mac.dcf txModule "\"^.tx\""
scalar LunarNetwork.wlanAP.wlan[0].mac.dcf frameSequenceFinished:count 56041
attr recordingmode count
attr title "finished frame sequences, count"
statistic LunarNetwork.wlanAP.wlan[0].mac.dcf frameSequenceDuration:histogram
field count 56041
field mean 0.00021154836923129
field stddev 0.00014587595413965
field min 4.6e-05
field max 0.000386157868
field sum 11.855382160091
field sqrsum 0.0037005064181252
attr recordingmode histogram
attr source frameSequenceDuration(frameSequenceFinished)
attr title "frame sequence durations"
bin	-inf	0
bin	0	0
bin	1e-05	0
bin	2e-05	0
bin	3e-05	0
bin	4e-05	900
bin	5e-05	0
bin	6e-05	0
bin	7e-05	0
bin	8e-05	30667
bin	9e-05	132
bin	0.0001	0
bin	0.00011	0
bin	0.00012	0
bin	0.00013	0
bin	0.00014	0
bin	0.00015	0
bin	0.00016	0
bin	0.00017	0
bin	0.00018	0
bin	0.00019	0
bin	0.0002	0
bin	0.00021	0
bin	0.00022	0
bin	0.00023	0
bin	0.00024	0
bin	0.00025	0
bin	0.00026	0
bin	0.00027	0
bin	0.00028	2217
bin	0.00029	56
bin	0.0003	93
bin	0.00031	0
bin	0.00032	0
bin	0.00033	0
bin	0.00034	0
bin	0.00035	0
bin	0.00036	0
bin	0.00037	0
bin	0.00038	21976
bin	0.00039	0
bin	0.0004	0
bin	0.00041	0
bin	0.00042	0
bin	0.00043	0
bin	0.00044	0
bin	0.00045	0
bin	0.00046	0
bin	0.00047	0
bin	0.00048	0
statistic LunarNetwork.wlanAP.wlan[0].mac.dcf frameSequenceNumPackets:histogram
field count 56041
field mean 2.7682232651095
field stddev 0.99723432676156
field min 1
field max 4
field sum 155134
field sqrsum 485176
attr recordingmode histogram
attr source frameSequenceNumPackets(frameSequenceFinished)
attr title "frame sequences: number of packets"
bin	-inf	0
bin	1	900
bin	2	33165
bin	3	0
bin	4	21976
bin	5	0
scalar LunarNetwork.wlanAP.wlan[0].mac.dcf packetReceivedFromPeer:count 163680
attr interpolationmode none
attr recordingmode count
attr title "packets received, count"
scalar LunarNetwork.wlanAP.wlan[0].mac.dcf packetReceivedFromPeer:sum(packetBytes) 54788736
attr interpolationmode none
attr recordingmode sum(packetBytes)
attr title "packets received, sum(packetBytes)"
scalar LunarNetwork.wlanAP.wlan[0].mac.dcf packetReceivedFromPeerUnicast:count 163680
attr interpolationmode none
attr recordingmode count
attr source ieee80211Unicast(packetReceivedFromPeer)
attr title "packets received: unicast, count"
scalar LunarNetwork.wlanAP.wlan[0].mac.dcf packetReceivedFromPeerUnicast:sum(packetBytes) 54788736
attr interpolationmode none
attr recordingmode sum(packetBytes)
attr source ieee80211Unicast(packetReceivedFromPeer)
attr title "packets received: unicast, sum(packetBytes)"
scalar LunarNetwork.wlanAP.wlan[0].mac.dcf packetReceivedFromPeerMulticast:count 0
attr interpolationmode none
attr recordingmode count
attr source ieee80211Multicast(packetReceivedFromPeer)
attr title "packets received: multicast, count"
scalar LunarNetwork.wlanAP.wlan[0].mac.dcf packetReceivedFromPeerMulticast:sum(packetBytes) 0
attr interpolationmode none
attr recordingmode sum(packetBytes)
attr source ieee80211Multicast(packetReceivedFromPeer)
attr title "packets received: multicast, sum(packetBytes)"
scalar LunarNetwork.wlanAP.wlan[0].mac.dcf packetReceivedFromPeerBroadcast:count 0
attr interpolationmode none
attr recordingmode count
attr source ieee80211Broadcast(packetReceivedFromPeer)
attr title "packets received: broadcast, count"
scalar LunarNetwork.wlanAP.wlan[0].mac.dcf packetReceivedFromPeerBroadcast:sum(packetBytes) 0
attr interpolationmode none
attr recordingmode sum(packetBytes)
attr source ieee80211Broadcast(packetReceivedFromPeer)
attr title "packets received: broadcast, sum(packetBytes)"
scalar LunarNetwork.wlanAP.wlan[0].mac.dcf packetReceivedFromPeerWithRetry:count 478
attr interpolationmode none
attr recordingmode count
attr source ieee80211Retry(packetReceivedFromPeer)
attr title "packets received: with retry, count"
scalar LunarNetwork.wlanAP.wlan[0].mac.dcf packetReceivedFromPeerWithRetry:sum(packetBytes) 363160
attr interpolationmode none
attr recordingmode sum(packetBytes)
attr source ieee80211Retry(packetReceivedFromPeer)
attr title "packets received: with retry, sum(packetBytes)"
scalar LunarNetwork.wlanAP.wlan[0].mac.dcf packetReceivedFromPeerWithoutRetry:count 163202
attr interpolationmode none
attr recordingmode count
attr source ieee80211NotRetry(packetReceivedFromPeer)
attr title "packets received: without retry, count"
scalar LunarNetwork.wlanAP.wlan[0].mac.dcf packetReceivedFromPeerWithoutRetry:sum(packetBytes) 54425576
attr interpolationmode none
attr recordingmode sum(packetBytes)
attr source ieee80211NotRetry(packetReceivedFromPeer)
attr title "packets received: without retry, sum(packetBytes)"
scalar LunarNetwork.wlanAP.wlan[0].mac.dcf packetSentToPeer:count 164811
attr interpolationmode none
attr recordingmode count
attr title "packets sent, count"
scalar LunarNetwork.wlanAP.wlan[0].mac.dcf packetSentToPeer:sum(packetBytes) 41595484
attr interpolationmode none
attr recordingmode sum(packetBytes)
attr title "packets sent, sum(packetBytes)"
scalar LunarNetwork.wlanAP.wlan[0].mac.dcf packetSentToPeerUnicast:count 163911
attr interpolationmode none
attr recordingmode count
attr source ieee80211Unicast(packetSentToPeer)
attr title "packets sent: unicast, count"
scalar LunarNetwork.wlanAP.wlan[0].mac.dcf packetSentToPeerUnicast:sum(packetBytes) 41552284
attr interpolationmode none
attr recordingmode sum(packetBytes)
attr source ieee80211Unicast(packetSentToPeer)
attr title "packets sent: unicast, sum(packetBytes)"
scalar LunarNetwork.wlanAP.wlan[0].mac.dcf packetSentToPeerMulticast:count 900
attr interpolationmode none
attr recordingmode count
attr source ieee80211Multicast(packetSentToPeer)
attr title "packets sent: multicast, count"
scalar LunarNetwork.wlanAP.wlan[0].mac.dcf packetSentToPeerMulticast:sum(packetBytes) 43200
attr interpolationmode none
attr recordingmode sum(packetBytes)
attr source ieee80211Multicast(packetSentToPeer)
attr title "packets sent: multicast, sum(packetBytes)"
scalar LunarNetwork.wlanAP.wlan[0].mac.dcf packetSentToPeerBroadcast:count 900
attr interpolationmode none
attr recordingmode count
attr source ieee80211Broadcast(packetSentToPeer)
attr title "packets sent: broadcast , count"
scalar LunarNetwork.wlanAP.wlan[0].mac.dcf packetSentToPeerBroadcast:sum(packetBytes) 43200
attr interpolationmode none
attr recordingmode sum(packetBytes)
attr source ieee80211Broadcast(packetSentToPeer)
attr title "packets sent: broadcast , sum(packetBytes)"
scalar LunarNetwork.wlanAP.wlan[0].mac.dcf packetSentToPeerWithRetry:count 231
attr interpolationmode none
attr recordingmode count
attr source ieee80211Retry(packetSentToPeer)
attr title "packets sent: with retry, count"
scalar LunarNetwork.wlanAP.wlan[0].mac.dcf packetSentToPeerWithRetry:sum(packetBytes) 159036
attr interpolationmode none
attr recordingmode sum(packetBytes)
attr source ieee80211Retry(packetSentToPeer)
attr title "packets sent: with retry, sum(packetBytes)"
scalar LunarNetwork.wlanAP.wlan[0].mac.dcf packetSentToPeerWithoutRetry:count 164580
attr interpolationmode none
attr recordingmode count
attr source ieee80211NotRetry(packetSentToPeer)
attr title "packets sent: without retry, count"
scalar LunarNetwork.wlanAP.wlan[0].mac.dcf packetSentToPeerWithoutRetry:sum(packetBytes) 41436448
attr interpolationmode none
attr recordingmode sum(packetBytes)
attr source ieee80211NotRetry(packetSentToPeer)
attr title "packets sent: without retry, sum(packetBytes)"
scalar LunarNetwork.wlanAP.wlan[0].mac.dcf packetDrop:count 500
attr interpolationmode none
attr recordingmode count
attr source packetDropped
attr title "packet drops, count"
scalar LunarNetwork.wlanAP.wlan[0].mac.dcf packetDrop:sum(packetBytes) 55456
attr interpolationmode none
attr recordingmode sum(packetBytes)
attr source packetDropped
attr title "packet drops, sum(packetBytes)"
scalar LunarNetwork.wlanAP.wlan[0].mac.dcf packetDropNotAddressedToUs:count 0
attr interpolationmode none
attr recordingmode count
attr source packetDropReasonIsNotAddressedToUs(packetDropped)
attr title "packet drops: not addressed to us, count"
scalar LunarNetwork.wlanAP.wlan[0].mac.dcf packetDropNotAddressedToUs:sum(packetBytes) 0
attr interpolationmode none
attr recordingmode sum(packetBytes)
attr source packetDropReasonIsNotAddressedToUs(packetDropped)
attr title "packet drops: not addressed to us, sum(packetBytes)"
scalar LunarNetwork.wlanAP.wlan[0].mac.dcf packetDropQueueOverflow:count 500
attr interpolationmode none
attr recordingmode count
attr source packetDropReasonIsQueueOverflow(packetDropped)
attr title "packet drops: queue overflow, count"
scalar LunarNetwork.wlanAP.wlan[0].mac.dcf packetDropQueueOverflow:sum(packetBytes) 55456
attr interpolationmode none
attr recordingmode sum(packetBytes)
attr source packetDropReasonIsQueueOverflow(packetDropped)
attr title "packet drops: queue overflow, sum(packetBytes)"
scalar LunarNetwork.wlanAP.wlan[0].mac.dcf packetDropRetryLimitReached:count 0
attr interpolationmode none
attr recordingmode count
attr source packetDropReasonIsRetryLimitReached(packetDropped)
attr title "packet drops: retry limit reached, count"
scalar LunarNetwork.wlanAP.wlan[0].mac.dcf packetDropRetryLimitReached:sum(packetBytes) 0
attr interpolationmode none
attr recordingmode sum(packetBytes)
attr source packetDropReasonIsRetryLimitReached(packetDropped)
attr title "packet drops: retry limit reached, sum(packetBytes)"
scalar LunarNetwork.wlanAP.wlan[0].mac.dcf linkBroken:count 0
attr interpolationmode none
attr recordingmode count
attr title "link breaks, count"
par LunarNetwork.wlanAP.wlan[0].mac.ds typename "\"inet.linklayer.ieee80211.mac.Ds\""
par LunarNetwork.wlanAP.wlan[0].mac.ds mibModule "\"LunarNetwork.wlanAP.wlan[0].mib\""
par LunarNetwork.wlanAP.wlan[0].mac.rx typename "\"inet.linklayer.ieee80211.mac.Rx\""
par LunarNetwork.wlanAP.wlan[0].mac.tx typename "\"inet.linklayer.ieee80211.mac.Tx\""
par LunarNetwork.wlanAP.wlan[0].mac.tx rxModule "\"^.rx\""
par LunarNetwork.wlanAP.wlan[0].mac typename "\"inet.linklayer.ieee80211.mac.Ieee80211Mac\""
par LunarNetwork.wlanAP.wlan[0].mac interfaceTableModule "\"LunarNetwork.wlanAP.interfaceTable\""
par LunarNetwork.wlanAP.wlan[0].mac mibModule "\"LunarNetwork.wlanAP.wlan[0].mib\""
par LunarNetwork.wlanAP.wlan[0].mac modeSet "\"g(mixed)\""
attr enum a,b,g(erp),g(mixed),n(mixed-2.4Ghz),p,ac
par LunarNetwork.wlanAP.wlan[0].mac fcsMode "\"declared\""
attr enum declared,computed
par LunarNetwork.wlanAP.wlan[0].mac initialRadioMode "\"receiver\""
attr enum off,sleep,receiver,transmitter,transceiver
par LunarNetwork.wlanAP.wlan[0].mac mtu 2304B
attr unit B
par LunarNetwork.wlanAP.wlan[0].mac qosStation false
scalar LunarNetwork.wlanAP.wlan[0].mac packetReceivedFromLower:count 163816
attr interpolationmode none
attr recordingmode count
attr title "packets received from lower layer, count"
scalar LunarNetwork.wlanAP.wlan[0].mac packetReceivedFromLower:sum(packetBytes) 54935728
attr interpolationmode none
attr recordingmode sum(packetBytes)
attr title "packets received from lower layer, sum(packetBytes)"
scalar LunarNetwork.wlanAP.wlan[0].mac packetSentToLower:count 164810
attr interpolationmode none
attr recordingmode count
attr title "packets sent to lower layer, count"
scalar LunarNetwork.wlanAP.wlan[0].mac packetSentToLower:sum(packetBytes) 41593984
attr interpolationmode none
attr recordingmode sum(packetBytes)
attr title "packets sent to lower layer, sum(packetBytes)"
scalar LunarNetwork.wlanAP.wlan[0].mac packetReceivedFromUpper:count 55409
attr interpolationmode none
attr recordingmode count
attr title "packets received from upper layer, count"
scalar LunarNetwork.wlanAP.wlan[0].mac packetReceivedFromUpper:sum(packetBytes) 38066726
attr interpolationmode none
attr recordingmode sum(packetBytes)
attr title "packets received from upper layer, sum(packetBytes)"
scalar LunarNetwork.wlanAP.wlan[0].mac packetSentToUpper:count 55625
attr interpolationmode none
attr recordingmode count
attr title "packets sent to upper layer, count"
scalar LunarNetwork.wlanAP.wlan[0].mac packetSentToUpper:sum(packetBytes) 51282100
attr interpolationmode none
attr recordingmode sum(packetBytes)
attr title "packets sent to upper layer, sum(packetBytes)"
scalar LunarNetwork.wlanAP.wlan[0].mac packetDrop:count 636
attr interpolationmode none
attr recordingmode count
attr source packetDropped
attr title "packet drops, count"
scalar LunarNetwork.wlanAP.wlan[0].mac packetDrop:sum(packetBytes) 202448
attr interpolationmode none
attr recordingmode sum(packetBytes)
attr source packetDropped
attr title "packet drops, sum(packetBytes)"
scalar LunarNetwork.wlanAP.wlan[0].mac packetDropIncorrectlyReceived:count 136
attr interpolationmode none
attr recordingmode count
attr source packetDropReasonIsIncorrectlyReceived(packetDropped)
attr title "packet drops: incorrectly received, count"
scalar LunarNetwork.wlanAP.wlan[0].mac packetDropIncorrectlyReceived:sum(packetBytes) 146992
attr interpolationmode none
attr recordingmode sum(packetBytes)
attr source packetDropReasonIsIncorrectlyReceived(packetDropped)
attr title "packet drops: incorrectly received, sum(packetBytes)"
scalar LunarNetwork.wlanAP.wlan[0].mac packetDropNotAddressedToUs:count 0
attr interpolationmode none
attr recordingmode count
attr source packetDropReasonIsNotAddressedToUs(packetDropped)
attr title "packet drops: not addressed to us, count"
scalar LunarNetwork.wlanAP.wlan[0].mac packetDropNotAddressedToUs:sum(packetBytes) 0
attr interpolationmode none
attr recordingmode sum(packetBytes)
attr source packetDropReasonIsNotAddressedToUs(packetDropped)
attr title "packet drops: not addressed to us, sum(packetBytes)"
scalar LunarNetwork.wlanAP.wlan[0].mac packetDropQueueOverflow:count 500
attr interpolationmode none
attr recordingmode count
attr source packetDropReasonIsQueueOverflow(packetDropped)
attr title "packet drops: queue overflow, count"
scalar LunarNetwork.wlanAP.wlan[0].mac packetDropQueueOverflow:sum(packetBytes) 55456
attr interpolationmode none
attr recordingmode sum(packetBytes)
attr source packetDropReasonIsQueueOverflow(packetDropped)
attr title "packet drops: queue overflow, sum(packetBytes)"
scalar LunarNetwork.wlanAP.wlan[0].mac packetDropRetryLimitReached:count 0
attr interpolationmode none
attr recordingmode count
attr source packetDropReasonIsRetryLimitReached(packetDropped)
attr title "packet drops: retry limit reached, count"
scalar LunarNetwork.wlanAP.wlan[0].mac packetDropRetryLimitReached:sum(packetBytes) 0
attr interpolationmode none
attr recordingmode sum(packetBytes)
attr source packetDropReasonIsRetryLimitReached(packetDropped)
attr title "packet drops: retry limit reached, sum(packetBytes)"
scalar LunarNetwork.wlanAP.wlan[0].mac packetDropDuplicateDetected:count 0
attr interpolationmode none
attr recordingmode count
attr source packetDropReasonIsDuplicateDetected(packetDropped)
attr title "packet drops: duplicate detected, count"
scalar LunarNetwork.wlanAP.wlan[0].mac packetDropDuplicateDetected:sum(packetBytes) 0
attr interpolationmode none
attr recordingmode sum(packetBytes)
attr source packetDropReasonIsDuplicateDetected(packetDropped)
attr title "packet drops: duplicate detected, sum(packetBytes)"
scalar LunarNetwork.wlanAP.wlan[0].mac packetDropOther:count 0
attr interpolationmode none
attr recordingmode count
attr source packetDropReasonIsOther(packetDropped)
attr title "packet drops: other, count"
scalar LunarNetwork.wlanAP.wlan[0].mac packetDropOther:sum(packetBytes) 0
attr interpolationmode none
attr recordingmode sum(packetBytes)
attr source packetDropReasonIsOther(packetDropped)
attr title "packet drops: other, sum(packetBytes)"
scalar LunarNetwork.wlanAP.wlan[0].mac linkBroken:count 0
attr interpolationmode none
attr recordingmode count
attr title "link breaks, count"
par LunarNetwork.wlanAP.wlan[0].radio.antenna typename "\"inet.physicallayer.wireless.common.antenna.IsotropicAntenna\""
par LunarNetwork.wlanAP.wlan[0].radio.antenna mobilityModule "\"^.^.^.mobility\""
par LunarNetwork.wlanAP.wlan[0].radio.antenna numAntennas 1
par LunarNetwork.wlanAP.wlan[0].radio.transmitter typename "\"inet.physicallayer.wireless.ieee80211.packetlevel.Ieee80211ScalarTransmitter\""
par LunarNetwork.wlanAP.wlan[0].radio.transmitter preambleDuration -1s
attr unit s
par LunarNetwork.wlanAP.wlan[0].radio.transmitter headerLength 192b
attr unit b
par LunarNetwork.wlanAP.wlan[0].radio.transmitter bitrate 5.4e+07bps
attr unit bps
par LunarNetwork.wlanAP.wlan[0].radio.transmitter power 0.02W
attr unit W
par LunarNetwork.wlanAP.wlan[0].radio.transmitter centerFrequency 2.412e+09Hz
attr unit Hz
par LunarNetwork.wlanAP.wlan[0].radio.transmitter bandwidth "nan Hz"
attr unit Hz
par LunarNetwork.wlanAP.wlan[0].radio.transmitter codeRate 1
par LunarNetwork.wlanAP.wlan[0].radio.transmitter modulation "\"BPSK\""
par LunarNetwork.wlanAP.wlan[0].radio.transmitter opMode "\"g(mixed)\""
attr enum a,b,g(erp),g(mixed),n(mixed-2.4Ghz),p,ac
par LunarNetwork.wlanAP.wlan[0].radio.transmitter bandName "\"2.4 GHz\""
attr enum "2.4 GHz,5 GHz,5 GHz (20 MHz),5 GHz (40 MHz),5 GHz (80 MHz),5 GHz (160 MHz),5.9 GHz"
par LunarNetwork.wlanAP.wlan[0].radio.transmitter channelNumber 0
par LunarNetwork.wlanAP.wlan[0].radio.receiver.errorModel typename "\"inet.physicallayer.wireless.ieee80211.packetlevel.errormodel.Ieee80211NistErrorModel\""
par LunarNetwork.wlanAP.wlan[0].radio.receiver.errorModel corruptionMode "\"packet\""
attr enum packet,chunk,byte,bit
par LunarNetwork.wlanAP.wlan[0].radio.receiver.errorModel snirMode "\"min\""
attr enum min,mean
par LunarNetwork.wlanAP.wlan[0].radio.receiver.errorModel snirOffset 0dB
attr unit dB
par LunarNetwork.wlanAP.wlan[0].radio.receiver typename "\"inet.physicallayer.wireless.ieee80211.packetlevel.Ieee80211ScalarReceiver\""
par LunarNetwork.wlanAP.wlan[0].radio.receiver snirThreshold 4dB
attr unit dB
par LunarNetwork.wlanAP.wlan[0].radio.receiver snirThresholdMode "\"min\""
attr enum min,mean
par LunarNetwork.wlanAP.wlan[0].radio.receiver energyDetection -85dBm
attr unit dBm
par LunarNetwork.wlanAP.wlan[0].radio.receiver sensitivity -85dBm
attr unit dBm
par LunarNetwork.wlanAP.wlan[0].radio.receiver centerFrequency 2.412e+09Hz
attr unit Hz
par LunarNetwork.wlanAP.wlan[0].radio.receiver bandwidth 2.2e+07Hz
attr unit Hz
par LunarNetwork.wlanAP.wlan[0].radio.receiver modulation "\"BPSK\""
par LunarNetwork.wlanAP.wlan[0].radio.receiver opMode "\"g(mixed)\""
attr enum a,b,g(erp),g(mixed),n(mixed-2.4Ghz),p,ac
par LunarNetwork.wlanAP.wlan[0].radio.receiver bandName "\"2.4 GHz\""
attr enum "2.4 GHz,5 GHz,5 GHz (20 MHz),5 GHz (40 MHz),5 GHz (80 MHz),5 GHz (160 MHz),5.9 GHz"
par LunarNetwork.wlanAP.wlan[0].radio.receiver channelNumber 0
par LunarNetwork.wlanAP.wlan[0].radio typename "\"inet.physicallayer.wireless.ieee80211.packetlevel.Ieee80211ScalarRadio\""
par LunarNetwork.wlanAP.wlan[0].radio radioMediumModule "\"radioMedium\""
par LunarNetwork.wlanAP.wlan[0].radio energySourceModule "\"\""
par LunarNetwork.wlanAP.wlan[0].radio initialRadioMode "\"off\""
attr enum off,sleep,receiver,transmitter,transceiver
par LunarNetwork.wlanAP.wlan[0].radio switchingTimes "\"ms 0 0 0 0 0 0 0 0 0 0 0 0 0 0 0 0 0 0 0 0 0 0 0 0 0\""
par LunarNetwork.wlanAP.wlan[0].radio sendRawBytes false
par LunarNetwork.wlanAP.wlan[0].radio separateTransmissionParts false
par LunarNetwork.wlanAP.wlan[0].radio separateReceptionParts false
par LunarNetwork.wlanAP.wlan[0].radio displayCommunicationRange false
par LunarNetwork.wlanAP.wlan[0].radio displayInterferenceRange false
par LunarNetwork.wlanAP.wlan[0].radio centerFrequency 2.412e+09Hz
attr unit Hz
par LunarNetwork.wlanAP.wlan[0].radio bandwidth "nan Hz"
attr unit Hz
par LunarNetwork.wlanAP.wlan[0].radio signalAnalogRepresentation "\"scalar\""
attr enum scalar,dimensional
par LunarNetwork.wlanAP.wlan[0].radio opMode "\"g(mixed)\""
attr enum a,b,g(erp),g(mixed),n(mixed-2.4Ghz),p,ac
par LunarNetwork.wlanAP.wlan[0].radio bandName "\"2.4 GHz\""
attr enum "2.4 GHz,5 GHz,5 GHz (20 MHz),5 GHz (40 MHz),5 GHz (80 MHz),5 GHz (160 MHz),5.9 GHz"
par LunarNetwork.wlanAP.wlan[0].radio channelNumber 0
par LunarNetwork.wlanAP.wlan[0].radio crcMode "\"declared\""
attr enum declared,computed
statistic LunarNetwork.wlanAP.wlan[0].radio radioChannel:histogram
field count 0
field mean -nan
field stddev -nan
field min -nan
field max -nan
field sum 0
field sqrsum 0
attr interpolationmode sample-hold
attr recordingmode histogram
attr source radioChannelChanged
attr title "Radio channel"
bin	-inf	0
bin	0	0
bin	1	0
scalar LunarNetwork.wlanAP.wlan[0].radio radioMode:count 329621
attr interpolationmode sample-hold
attr recordingmode count
attr source radioModeChanged
attr title "Radio mode, count"
scalar LunarNetwork.wlanAP.wlan[0].radio receptionState:count 657387
attr interpolationmode sample-hold
attr recordingmode count
attr source receptionStateChanged
attr title "Radio reception state, count"
scalar LunarNetwork.wlanAP.wlan[0].radio transmissionState:count 659242
attr interpolationmode sample-hold
attr recordingmode count
attr source transmissionStateChanged
attr title "Radio transmission state, count"
statistic LunarNetwork.wlanAP.wlan[0].radio minSnir:histogram
field count 163816
field mean 40367921.059253
field stddev 80783913.687243
field min 0.088331495956649
field max 395802275.81883
field sum 6612911356242.7
field sqrsum 1.3360128426122e+21
attr recordingmode histogram
attr source minimumSnir(packetSentToUpper)
attr title "Min SNIR"
bin	-inf	0
bin	0	35198
bin	7000000	5468
bin	14000000	6235
bin	21000000	10483
bin	28000000	98543
bin	35000000	0
bin	42000000	0
bin	49000000	0
bin	56000000	0
bin	63000000	0
bin	70000000	0
bin	77000000	0
bin	84000000	0
bin	91000000	0
bin	98000000	0
bin	105000000	0
bin	112000000	0
bin	119000000	0
bin	126000000	0
bin	133000000	0
bin	140000000	0
bin	147000000	0
bin	154000000	0
bin	161000000	0
bin	168000000	0
bin	175000000	0
bin	182000000	0
bin	189000000	0
bin	196000000	0
bin	203000000	0
bin	210000000	0
bin	217000000	0
bin	224000000	0
bin	231000000	0
bin	238000000	0
bin	245000000	0
bin	252000000	0
bin	259000000	0
bin	266000000	0
bin	273000000	0
bin	280000000	0
bin	287000000	0
bin	294000000	0
bin	301000000	0
bin	308000000	0
bin	315000000	0
bin	322000000	0
bin	329000000	0
bin	336000000	0
bin	343000000	0
bin	350000000	0
bin	357000000	0
bin	364000000	0
bin	371000000	0
bin	378000000	0
bin	385000000	0
bin	392000000	7889
bin	399000000	0
statistic LunarNetwork.wlanAP.wlan[0].radio packetErrorRate:histogram
field count 163816
field mean 0.00083020282024703
field stddev 0.028801311839206
field min 0
field max 1
field sum 136.00050520159
field sqrsum 136.00000006381
attr recordingmode histogram
attr source packetErrorRate(packetSentToUpper)
attr title "Packet error rate"
bin	-inf	0
bin	-0.5	0
bin	-0.48	0
bin	-0.46	0
bin	-0.44	0
bin	-0.42	0
bin	-0.4	0
bin	-0.38	0
bin	-0.36	0
bin	-0.34	0
bin	-0.32	0
bin	-0.3	0
bin	-0.28	0
bin	-0.26	0
bin	-0.24	0
bin	-0.22	0
bin	-0.2	0
bin	-0.18	0
bin	-0.16	0
bin	-0.14	0
bin	-0.12	0
bin	-0.1	0
bin	-0.08	0
bin	-0.06	0
bin	-0.04	0
bin	-0.02	0
bin	0	163680
bin	0.02	0
bin	0.04	0
bin	0.06	0
bin	0.08	0
bin	0.1	0
bin	0.12	0
bin	0.14	0
bin	0.16	0
bin	0.18	0
bin	0.2	0
bin	0.22	0
bin	0.24	0
bin	0.26	0
bin	0.28	0
bin	0.3	0
bin	0.32	0
bin	0.34	0
bin	0.36	0
bin	0.38	0
bin	0.4	0
bin	0.42	0
bin	0.44	0
bin	0.46	0
bin	0.48	0
bin	0.5	0
bin	0.52	0
bin	0.54	0
bin	0.56	0
bin	0.58	0
bin	0.6	0
bin	0.62	0
bin	0.64	0
bin	0.66	0
bin	0.68	0
bin	0.7	0
bin	0.72	0
bin	0.74	0
bin	0.76	0
bin	0.78	0
bin	0.8	0
bin	0.82	0
bin	0.84	0
bin	0.86	0
bin	0.88	0
bin	0.9	0
bin	0.92	0
bin	0.94	0
bin	0.96	0
bin	0.98	0
bin	1	136
bin	1.02	0
statistic LunarNetwork.wlanAP.wlan[0].radio bitErrorRate:histogram
field count 0
field mean -nan
field stddev -nan
field min -nan
field max -nan
field sum 0
field sqrsum 0
attr recordingmode histogram
attr source bitErrorRate(packetSentToUpper)
attr title "Bit error rate"
bin	-inf	0
bin	0	0
bin	1	0
statistic LunarNetwork.wlanAP.wlan[0].radio symbolErrorRate:histogram
field count 0
field mean -nan
field stddev -nan
field min -nan
field max -nan
field sum 0
field sqrsum 0
attr recordingmode histogram
attr source symbolErrorRate(packetSentToUpper)
attr title "Symbol error rate"
bin	-inf	0
bin	0	0
bin	1	0
par LunarNetwork.wlanAP.wlan[0] typename "\"inet.linklayer.ieee80211.Ieee80211Interface\""
par LunarNetwork.wlanAP.wlan[0] displayStringTextFormat "\"%a (%i)\\n%m\""
par LunarNetwork.wlanAP.wlan[0] recordPcap false
par LunarNetwork.wlanAP.wlan[0] numPcapRecorders 0
par LunarNetwork.wlanAP.wlan[0] interfaceTableModule "\"LunarNetwork.wlanAP.interfaceTable\""
par LunarNetwork.wlanAP.wlan[0] energySourceModule "\"\""
par LunarNetwork.wlanAP.wlan[0] opMode "\"g(mixed)\""
attr enum a,b,g(erp),g(mixed),n(mixed-2.4Ghz),p,ac
par LunarNetwork.wlanAP.wlan[0] address "\"0A-AA-00-00-00-01\""
attr mutable ""
par LunarNetwork.wlanAP.wlan[0] protocol "\"ethernetmac\""
par LunarNetwork.wlanAP.wlan[0] bitrate 5.4e+07bps
attr unit bps
scalar LunarNetwork.wlanAP.wlan[0] packetDropInterfaceDown:count 0
attr interpolationmode none
attr recordingmode count
attr source packetDropReasonIsInterfaceDown(packetDropped)
attr title "packet drops: interface down, count"
scalar LunarNetwork.wlanAP.wlan[0] packetDropInterfaceDown:sum(packetBytes) 0
attr interpolationmode none
attr recordingmode sum(packetBytes)
attr source packetDropReasonIsInterfaceDown(packetDropped)
attr title "packet drops: interface down, sum(packetBytes)"
scalar LunarNetwork.wlanAP.wlan[0] packetDropNoCarrier:count 0
attr interpolationmode none
attr recordingmode count
attr source packetDropReasonIsNoCarrier(packetDropped)
attr title "packet drops: no carrier, count"
scalar LunarNetwork.wlanAP.wlan[0] packetDropNoCarrier:sum(packetBytes) 0
attr interpolationmode none
attr recordingmode sum(packetBytes)
attr source packetDropReasonIsNoCarrier(packetDropped)
attr title "packet drops: no carrier, sum(packetBytes)"
par LunarNetwork.wlanAP.eth[0].mac.phys$o.channel typename "\"ned.IdealChannel\""
par LunarNetwork.wlanAP.eth[0].phys$i.channel typename "\"ned.IdealChannel\""
par LunarNetwork.wlanAP.eth[0].upperLayerIn.channel typename "\"ned.IdealChannel\""
par LunarNetwork.wlanAP.eth[0].mac.upperLayerOut.channel typename "\"ned.IdealChannel\""
par LunarNetwork.wlanAP.eth[0].queue typename "\"inet.queueing.queue.DropTailQueue\""
par LunarNetwork.wlanAP.eth[0].queue displayStringTextFormat "\"contains %p pk (%l) pushed %u\\npulled %o removed %r dropped %d\""
par LunarNetwork.wlanAP.eth[0].queue packetCapacity 100
par LunarNetwork.wlanAP.eth[0].queue dataCapacity -1b
attr unit b
par LunarNetwork.wlanAP.eth[0].queue dropperClass "\"inet::queueing::PacketAtCollectionEndDropper\""
par LunarNetwork.wlanAP.eth[0].queue comparatorClass "\"\""
par LunarNetwork.wlanAP.eth[0].queue bufferModule "\"\""
scalar LunarNetwork.wlanAP.eth[0].queue queueLength:last 0
attr autoWarmupFilter false
attr interpolationmode sample-hold
attr recordingmode last
attr source "warmup(atomic(constant0(packetPushEnded) + count(packetPushStarted) - count(packetPulled) - count(packetRemoved) - count(packetDropped)))"
attr title "queue length, last"
attr unit pk
scalar LunarNetwork.wlanAP.eth[0].queue queueLength:max 0
attr autoWarmupFilter false
attr interpolationmode sample-hold
attr recordingmode max
attr source "warmup(atomic(constant0(packetPushEnded) + count(packetPushStarted) - count(packetPulled) - count(packetRemoved) - count(packetDropped)))"
attr title "queue length, max"
attr unit pk
scalar LunarNetwork.wlanAP.eth[0].queue queueLength:timeavg 0
attr autoWarmupFilter false
attr interpolationmode sample-hold
attr recordingmode timeavg
attr source "warmup(atomic(constant0(packetPushEnded) + count(packetPushStarted) - count(packetPulled) - count(packetRemoved) - count(packetDropped)))"
attr title "queue length, timeavg"
attr unit pk
scalar LunarNetwork.wlanAP.eth[0].queue queueBitLength:last 0
attr autoWarmupFilter false
attr interpolationmode sample-hold
attr recordingmode last
attr source "warmup(atomic(constant0(packetPushEnded) + sum(packetLength(packetPushStarted)) - sum(packetLength(packetPulled)) - sum(packetLength(packetRemoved)) - sum(packetLength(packetDropped))))"
attr title "queue bit length, last"
attr unit b
scalar LunarNetwork.wlanAP.eth[0].queue queueBitLength:max 0
attr autoWarmupFilter false
attr interpolationmode sample-hold
attr recordingmode max
attr source "warmup(atomic(constant0(packetPushEnded) + sum(packetLength(packetPushStarted)) - sum(packetLength(packetPulled)) - sum(packetLength(packetRemoved)) - sum(packetLength(packetDropped))))"
attr title "queue bit length, max"
attr unit b
scalar LunarNetwork.wlanAP.eth[0].queue queueBitLength:timeavg 0
attr autoWarmupFilter false
attr interpolationmode sample-hold
attr recordingmode timeavg
attr source "warmup(atomic(constant0(packetPushEnded) + sum(packetLength(packetPushStarted)) - sum(packetLength(packetPulled)) - sum(packetLength(packetRemoved)) - sum(packetLength(packetDropped))))"
attr title "queue bit length, timeavg"
attr unit b
statistic LunarNetwork.wlanAP.eth[0].queue queueingTime:histogram
field count 55625
field mean 0
field stddev 0
field min 0
field max 0
field sum 0
field sqrsum 0
attr interpolationmode none
attr recordingmode histogram
attr source queueingTime(packetPulled)
attr title "queueing times"
attr unit s
bin	-inf	0
bin	-0.5	0
bin	-0.48	0
bin	-0.46	0
bin	-0.44	0
bin	-0.42	0
bin	-0.4	0
bin	-0.38	0
bin	-0.36	0
bin	-0.34	0
bin	-0.32	0
bin	-0.3	0
bin	-0.28	0
bin	-0.26	0
bin	-0.24	0
bin	-0.22	0
bin	-0.2	0
bin	-0.18	0
bin	-0.16	0
bin	-0.14	0
bin	-0.12	0
bin	-0.1	0
bin	-0.08	0
bin	-0.06	0
bin	-0.04	0
bin	-0.02	0
bin	0	55625
bin	0.02	0
bin	0.04	0
bin	0.06	0
bin	0.08	0
bin	0.1	0
bin	0.12	0
bin	0.14	0
bin	0.16	0
bin	0.18	0
bin	0.2	0
bin	0.22	0
bin	0.24	0
bin	0.26	0
bin	0.28	0
bin	0.3	0
bin	0.32	0
bin	0.34	0
bin	0.36	0
bin	0.38	0
bin	0.4	0
bin	0.42	0
bin	0.44	0
bin	0.46	0
bin	0.48	0
bin	0.5	0
scalar LunarNetwork.wlanAP.eth[0].queue outgoingPackets:count 55625
attr recordingmode count
attr source packetPulled
attr title "outgoing packets, count"
attr unit pk
scalar LunarNetwork.wlanAP.eth[0].queue outgoingPacketLengths:sum 414706800
attr interpolationmode none
attr recordingmode sum
attr source packetLength(packetPulled)
attr title "outgoing packet lengths, sum"
attr unit b
statistic LunarNetwork.wlanAP.eth[0].queue outgoingPacketLengths:histogram
field count 55625
field mean 7455.4031460674
field stddev 5698.0335192367
field min 464
field max 12144
field sum 414706800
field sqrsum 4897783384320
attr interpolationmode none
attr recordingmode histogram
attr source packetLength(packetPulled)
attr title "outgoing packet lengths"
attr unit b
bin	-inf	0
bin	0	0
bin	200	0
bin	400	22161
bin	600	0
bin	800	0
bin	1000	0
bin	1200	0
bin	1400	0
bin	1600	0
bin	1800	0
bin	2000	45
bin	2200	0
bin	2400	0
bin	2600	0
bin	2800	0
bin	3000	0
bin	3200	0
bin	3400	0
bin	3600	0
bin	3800	0
bin	4000	0
bin	4200	0
bin	4400	0
bin	4600	0
bin	4800	0
bin	5000	0
bin	5200	0
bin	5400	0
bin	5600	0
bin	5800	0
bin	6000	0
bin	6200	0
bin	6400	0
bin	6600	0
bin	6800	0
bin	7000	0
bin	7200	0
bin	7400	0
bin	7600	0
bin	7800	0
bin	8000	0
bin	8200	0
bin	8400	0
bin	8600	0
bin	8800	0
bin	9000	0
bin	9200	0
bin	9400	0
bin	9600	0
bin	9800	0
bin	10000	0
bin	10200	0
bin	10400	0
bin	10600	0
bin	10800	0
bin	11000	0
bin	11200	0
bin	11400	2250
bin	11600	0
bin	11800	0
bin	12000	31169
bin	12200	0
bin	12400	0
bin	12600	0
bin	12800	0
bin	13000	0
bin	13200	0
bin	13400	0
bin	13600	0
bin	13800	0
bin	14000	0
bin	14200	0
bin	14400	0
bin	14600	0
bin	14800	0
bin	15000	0
bin	15200	0
statistic LunarNetwork.wlanAP.eth[0].queue flowQueueingTime:histogram
field count 0
field mean -nan
field stddev -nan
field min -nan
field max -nan
field sum 0
field sqrsum 0
attr interpolationmode none
attr recordingmode histogram
attr source queueingTime(demuxFlow(packetPulled))
attr title "flow queueing times"
attr unit s
bin	-inf	0
bin	0	0
bin	1	0
scalar LunarNetwork.wlanAP.eth[0].queue incomingPackets:count 55625
attr recordingmode count
attr source packetPushStarted
attr title "incoming packets, count"
attr unit pk
scalar LunarNetwork.wlanAP.eth[0].queue incomingPacketLengths:sum 414706800
attr interpolationmode none
attr recordingmode sum
attr source packetLength(packetPushStarted)
attr title "incoming packet lengths, sum"
attr unit b
statistic LunarNetwork.wlanAP.eth[0].queue incomingPacketLengths:histogram
field count 55625
field mean 7455.4031460674
field stddev 5698.0335192367
field min 464
field max 12144
field sum 414706800
field sqrsum 4897783384320
attr interpolationmode none
attr recordingmode histogram
attr source packetLength(packetPushStarted)
attr title "incoming packet lengths"
attr unit b
bin	-inf	0
bin	0	0
bin	200	0
bin	400	22161
bin	600	0
bin	800	0
bin	1000	0
bin	1200	0
bin	1400	0
bin	1600	0
bin	1800	0
bin	2000	45
bin	2200	0
bin	2400	0
bin	2600	0
bin	2800	0
bin	3000	0
bin	3200	0
bin	3400	0
bin	3600	0
bin	3800	0
bin	4000	0
bin	4200	0
bin	4400	0
bin	4600	0
bin	4800	0
bin	5000	0
bin	5200	0
bin	5400	0
bin	5600	0
bin	5800	0
bin	6000	0
bin	6200	0
bin	6400	0
bin	6600	0
bin	6800	0
bin	7000	0
bin	7200	0
bin	7400	0
bin	7600	0
bin	7800	0
bin	8000	0
bin	8200	0
bin	8400	0
bin	8600	0
bin	8800	0
bin	9000	0
bin	9200	0
bin	9400	0
bin	9600	0
bin	9800	0
bin	10000	0
bin	10200	0
bin	10400	0
bin	10600	0
bin	10800	0
bin	11000	0
bin	11200	0
bin	11400	2250
bin	11600	0
bin	11800	0
bin	12000	31169
bin	12200	0
bin	12400	0
bin	12600	0
bin	12800	0
bin	13000	0
bin	13200	0
bin	13400	0
bin	13600	0
bin	13800	0
bin	14000	0
bin	14200	0
bin	14400	0
bin	14600	0
bin	14800	0
bin	15000	0
bin	15200	0
scalar LunarNetwork.wlanAP.eth[0].queue droppedPacketsQueueOverflow:count 0
attr interpolationmode none
attr recordingmode count
attr source packetDropReasonIsQueueOverflow(packetDropped)
attr title "dropped packets: queue overflow, count"
attr unit pk
scalar LunarNetwork.wlanAP.eth[0].queue droppedPacketLengthsQueueOverflow:sum 0
attr interpolationmode none
attr recordingmode sum
attr source packetLength(packetDropReasonIsQueueOverflow(packetDropped))
attr title "dropped packet lengths: queue overflow, sum"
attr unit b
par LunarNetwork.wlanAP.eth[0].mac typename "\"inet.linklayer.ethernet.basic.EthernetMac\""
par LunarNetwork.wlanAP.eth[0].mac interfaceTableModule "\"LunarNetwork.wlanAP.interfaceTable\""
par LunarNetwork.wlanAP.eth[0].mac displayStringTextFormat "\"rate: %b\\nsent: %s, rcvd: %r\\nqueue: %q, drop: %d\""
par LunarNetwork.wlanAP.eth[0].mac sendRawBytes false
par LunarNetwork.wlanAP.eth[0].mac promiscuous true
par LunarNetwork.wlanAP.eth[0].mac duplexMode true
par LunarNetwork.wlanAP.eth[0].mac mtu 1500B
attr unit B
par LunarNetwork.wlanAP.eth[0].mac fcsMode "\"declared\""
attr enum declared,computed
par LunarNetwork.wlanAP.eth[0].mac stopOperationExtraTime -1s
attr unit s
par LunarNetwork.wlanAP.eth[0].mac stopOperationTimeout 2s
attr unit s
scalar LunarNetwork.wlanAP.eth[0].mac "simulated time" 100
scalar LunarNetwork.wlanAP.eth[0].mac full-duplex 1
scalar LunarNetwork.wlanAP.eth[0].mac "frames/sec sent" 636.69
scalar LunarNetwork.wlanAP.eth[0].mac "frames/sec rcvd" 634.35
scalar LunarNetwork.wlanAP.eth[0].mac "bits/sec sent" 4564018.4
scalar LunarNetwork.wlanAP.eth[0].mac "bits/sec rcvd" 3719308.16
scalar LunarNetwork.wlanAP.eth[0].mac "rx channel idle (%)" 96.24009344
scalar LunarNetwork.wlanAP.eth[0].mac "rx channel utilization (%)" 3.75990656
scalar LunarNetwork.wlanAP.eth[0].mac rxPausePkUnits:count 0
attr interpolationmode none
attr recordingmode count
attr title "pause units received, count"
scalar LunarNetwork.wlanAP.eth[0].mac rxPausePkUnits:sum 0
attr interpolationmode none
attr recordingmode sum
attr title "pause units received, sum"
scalar LunarNetwork.wlanAP.eth[0].mac txPausePkUnits:count 0
attr interpolationmode none
attr recordingmode count
attr title "pause units sent, count"
scalar LunarNetwork.wlanAP.eth[0].mac txPausePkUnits:sum 0
attr interpolationmode none
attr recordingmode sum
attr title "pause units sent, sum"
scalar LunarNetwork.wlanAP.eth[0].mac rxPkOk:count 55409
attr interpolationmode none
attr recordingmode count
attr source rxPkOk
attr title "packets received OK, count"
scalar LunarNetwork.wlanAP.eth[0].mac rxPkOk:sum(packetBytes) 38620816
attr interpolationmode none
attr recordingmode sum(packetBytes)
attr source rxPkOk
attr title "packets received OK, sum(packetBytes)"
scalar LunarNetwork.wlanAP.eth[0].mac txPk:count 55625
attr interpolationmode none
attr recordingmode count
attr source packetSentToLower
attr title "packets transmitted, count"
scalar LunarNetwork.wlanAP.eth[0].mac txPk:sum(packetBytes) 51971046
attr interpolationmode none
attr recordingmode sum(packetBytes)
attr source packetSentToLower
attr title "packets transmitted, sum(packetBytes)"
scalar LunarNetwork.wlanAP.eth[0].mac packetReceivedFromUpper:count 55625
attr interpolationmode none
attr recordingmode count
attr source packetReceivedFromUpper
attr title "packet bytes from higher layer, count"
scalar LunarNetwork.wlanAP.eth[0].mac packetReceivedFromUpper:sum(packetBytes) 51838350
attr interpolationmode none
attr recordingmode sum(packetBytes)
attr source packetReceivedFromUpper
attr title "packet bytes from higher layer, sum(packetBytes)"
scalar LunarNetwork.wlanAP.eth[0].mac passedUpPk:count 55409
attr interpolationmode none
attr recordingmode count
attr source packetSentToUpper
attr title "packets passed to higher layer, count"
scalar LunarNetwork.wlanAP.eth[0].mac passedUpPk:sum(packetBytes) 38620816
attr interpolationmode none
attr recordingmode sum(packetBytes)
attr source packetSentToUpper
attr title "packets passed to higher layer, sum(packetBytes)"
scalar LunarNetwork.wlanAP.eth[0].mac packetDropIncorrectlyReceived:count 0
attr interpolationmode none
attr recordingmode count
attr source packetDropReasonIsIncorrectlyReceived(packetDropped)
attr title "packet drop: incorrectly received, count"
scalar LunarNetwork.wlanAP.eth[0].mac packetDropIncorrectlyReceived:sum(packetBytes) 0
attr interpolationmode none
attr recordingmode sum(packetBytes)
attr source packetDropReasonIsIncorrectlyReceived(packetDropped)
[...]
attr title "packet drops: no carrier, count"
scalar LunarNetwork.ftpServer.ppp[0] packetDropNoCarrier:sum(packetBytes) 0
attr interpolationmode none
attr recordingmode sum(packetBytes)
attr source packetDropReasonIsNoCarrier(packetDropped)
attr title "packet drops: no carrier, sum(packetBytes)"
par LunarNetwork.ftpServer.ipv4.transportIn.channel typename "\"ned.IdealChannel\""
par LunarNetwork.ftpServer.ipv4.up.out[0].channel typename "\"ned.IdealChannel\""
par LunarNetwork.ftpServer.ipv4.lp.out[2].channel typename "\"ned.IdealChannel\""
par LunarNetwork.ftpServer.ipv4.ifIn.channel typename "\"ned.IdealChannel\""
par LunarNetwork.ftpServer.ipv4.configurator typename "\"inet.networklayer.configurator.ipv4.Ipv4NodeConfigurator\""
par LunarNetwork.ftpServer.ipv4.configurator interfaceTableModule "\"LunarNetwork.ftpServer.interfaceTable\""
par LunarNetwork.ftpServer.ipv4.configurator routingTableModule "\"LunarNetwork.ftpServer.ipv4.routingTable\""
par LunarNetwork.ftpServer.ipv4.configurator networkConfiguratorModule "\"configurator\""
par LunarNetwork.ftpServer.ipv4.configurator configureRoutingTable true
par LunarNetwork.ftpServer.ipv4.routingTable typename "\"inet.networklayer.ipv4.Ipv4RoutingTable\""
par LunarNetwork.ftpServer.ipv4.routingTable interfaceTableModule "\"LunarNetwork.ftpServer.interfaceTable\""
par LunarNetwork.ftpServer.ipv4.routingTable routerId "\"auto\""
par LunarNetwork.ftpServer.ipv4.routingTable netmaskRoutes "\"*\""
par LunarNetwork.ftpServer.ipv4.routingTable forwarding false
par LunarNetwork.ftpServer.ipv4.routingTable multicastForwarding false
par LunarNetwork.ftpServer.ipv4.routingTable useAdminDist false
par LunarNetwork.ftpServer.ipv4.routingTable routingFile "\"\""
par LunarNetwork.ftpServer.ipv4.natTable typename "\"inet.networklayer.ipv4.Ipv4NatTable\""
par LunarNetwork.ftpServer.ipv4.natTable networkProtocolModule "\"^.ip\""
par LunarNetwork.ftpServer.ipv4.natTable config "<config/> at content:1"
par LunarNetwork.ftpServer.ipv4.up typename "\"inet.common.MessageDispatcher\""
par LunarNetwork.ftpServer.ipv4.up displayStringTextFormat "\"processed %p pk (%l)\""
par LunarNetwork.ftpServer.ipv4.up forwardServiceRegistration true
par LunarNetwork.ftpServer.ipv4.up forwardProtocolRegistration true
par LunarNetwork.ftpServer.ipv4.igmp typename "\"inet.networklayer.ipv4.Igmpv2\""
par LunarNetwork.ftpServer.ipv4.igmp interfaceTableModule "\"LunarNetwork.ftpServer.interfaceTable\""
par LunarNetwork.ftpServer.ipv4.igmp routingTableModule "\"LunarNetwork.ftpServer.ipv4.routingTable\""
par LunarNetwork.ftpServer.ipv4.igmp crcMode "\"declared\""
attr enum declared,computed
par LunarNetwork.ftpServer.ipv4.igmp enabled true
par LunarNetwork.ftpServer.ipv4.igmp robustnessVariable 2
par LunarNetwork.ftpServer.ipv4.igmp queryInterval 125s
attr unit s
par LunarNetwork.ftpServer.ipv4.igmp queryResponseInterval 10s
attr unit s
par LunarNetwork.ftpServer.ipv4.igmp groupMembershipInterval 260s
attr unit s
par LunarNetwork.ftpServer.ipv4.igmp otherQuerierPresentInterval 255s
attr unit s
par LunarNetwork.ftpServer.ipv4.igmp startupQueryInterval 31.25s
attr unit s
par LunarNetwork.ftpServer.ipv4.igmp startupQueryCount 2
par LunarNetwork.ftpServer.ipv4.igmp lastMemberQueryInterval 1s
attr unit s
par LunarNetwork.ftpServer.ipv4.igmp lastMemberQueryCount 2
par LunarNetwork.ftpServer.ipv4.igmp unsolicitedReportInterval 10s
attr unit s
par LunarNetwork.ftpServer.ipv4.icmp typename "\"inet.networklayer.ipv4.Icmp\""
par LunarNetwork.ftpServer.ipv4.icmp interfaceTableModule "\"LunarNetwork.ftpServer.interfaceTable\""
par LunarNetwork.ftpServer.ipv4.icmp routingTableModule "\"LunarNetwork.ftpServer.ipv4.routingTable\""
par LunarNetwork.ftpServer.ipv4.icmp crcMode "\"declared\""
attr enum declared,computed
attr mutable ""
par LunarNetwork.ftpServer.ipv4.icmp quoteLength 8B
attr mutable ""
attr unit B
par LunarNetwork.ftpServer.ipv4.mp typename "\"inet.common.MessageDispatcher\""
par LunarNetwork.ftpServer.ipv4.mp displayStringTextFormat "\"processed %p pk (%l)\""
par LunarNetwork.ftpServer.ipv4.mp forwardServiceRegistration true
par LunarNetwork.ftpServer.ipv4.mp forwardProtocolRegistration true
par LunarNetwork.ftpServer.ipv4.ip typename "\"inet.networklayer.ipv4.Ipv4\""
par LunarNetwork.ftpServer.ipv4.ip interfaceTableModule "\"LunarNetwork.ftpServer.interfaceTable\""
par LunarNetwork.ftpServer.ipv4.ip routingTableModule "\"LunarNetwork.ftpServer.ipv4.routingTable\""
par LunarNetwork.ftpServer.ipv4.ip arpModule "\"LunarNetwork.ftpServer.ipv4.arp\""
par LunarNetwork.ftpServer.ipv4.ip icmpModule "\"LunarNetwork.ftpServer.ipv4.icmp\""
par LunarNetwork.ftpServer.ipv4.ip crcMode "\"declared\""
attr enum declared,computed
par LunarNetwork.ftpServer.ipv4.ip timeToLive 32
par LunarNetwork.ftpServer.ipv4.ip multicastTimeToLive 32
par LunarNetwork.ftpServer.ipv4.ip fragmentTimeout 60s
attr unit s
par LunarNetwork.ftpServer.ipv4.ip limitedBroadcast false
par LunarNetwork.ftpServer.ipv4.ip directBroadcastInterfaces "\"\""
scalar LunarNetwork.ftpServer.ipv4.ip packetDropAddressResolutionFailed:count 0
attr interpolationmode none
attr recordingmode count
attr source packetDropReasonIsAddressResolutionFailed(packetDropped)
attr title "packet drop: address resolution failed, count"
scalar LunarNetwork.ftpServer.ipv4.ip packetDropAddressResolutionFailed:sum(packetBytes) 0
attr interpolationmode none
attr recordingmode sum(packetBytes)
attr source packetDropReasonIsAddressResolutionFailed(packetDropped)
attr title "packet drop: address resolution failed, sum(packetBytes)"
scalar LunarNetwork.ftpServer.ipv4.ip packetDropHopLimitReached:count 0
attr interpolationmode none
attr recordingmode count
attr source packetDropReasonIsHopLimitReached(packetDropped)
attr title "packet drop: hop limit reached, count"
scalar LunarNetwork.ftpServer.ipv4.ip packetDropHopLimitReached:sum(packetBytes) 0
attr interpolationmode none
attr recordingmode sum(packetBytes)
attr source packetDropReasonIsHopLimitReached(packetDropped)
attr title "packet drop: hop limit reached, sum(packetBytes)"
scalar LunarNetwork.ftpServer.ipv4.ip packetDropForwardingDisabled:count 0
attr interpolationmode none
attr recordingmode count
attr source packetDropReasonIsForwardingDisabled(packetDropped)
attr title "packet drop: forwarding disabled, count"
scalar LunarNetwork.ftpServer.ipv4.ip packetDropForwardingDisabled:sum(packetBytes) 0
attr interpolationmode none
attr recordingmode sum(packetBytes)
attr source packetDropReasonIsForwardingDisabled(packetDropped)
attr title "packet drop: forwarding disabled, sum(packetBytes)"
scalar LunarNetwork.ftpServer.ipv4.ip packetDropNoInterfaceFound:count 0
attr interpolationmode none
attr recordingmode count
attr source packetDropReasonIsNoInterfaceFound(packetDropped)
attr title "packet drop: no interface found, count"
scalar LunarNetwork.ftpServer.ipv4.ip packetDropNoInterfaceFound:sum(packetBytes) 0
attr interpolationmode none
attr recordingmode sum(packetBytes)
attr source packetDropReasonIsNoInterfaceFound(packetDropped)
attr title "packet drop: no interface found, sum(packetBytes)"
scalar LunarNetwork.ftpServer.ipv4.ip packetDropNoRouteFound:count 0
attr interpolationmode none
attr recordingmode count
attr source packetDropReasonIsNoRouteFound(packetDropped)
attr title "packet drop: no route found, count"
scalar LunarNetwork.ftpServer.ipv4.ip packetDropNoRouteFound:sum(packetBytes) 0
attr interpolationmode none
attr recordingmode sum(packetBytes)
attr source packetDropReasonIsNoRouteFound(packetDropped)
attr title "packet drop: no route found, sum(packetBytes)"
scalar LunarNetwork.ftpServer.ipv4.ip packetDropUndefined:count 0
attr interpolationmode none
attr recordingmode count
attr source packetDropReasonIsUndefined(packetDropped)
attr title "packet drop: undefined, count"
scalar LunarNetwork.ftpServer.ipv4.ip packetDropUndefined:sum(packetBytes) 0
attr interpolationmode none
attr recordingmode sum(packetBytes)
attr source packetDropReasonIsUndefined(packetDropped)
attr title "packet drop: undefined, sum(packetBytes)"
par LunarNetwork.ftpServer.ipv4.arp typename "\"inet.networklayer.arp.ipv4.Arp\""
par LunarNetwork.ftpServer.ipv4.arp interfaceTableModule "\"LunarNetwork.ftpServer.interfaceTable\""
par LunarNetwork.ftpServer.ipv4.arp routingTableModule "\"LunarNetwork.ftpServer.ipv4.routingTable\""
par LunarNetwork.ftpServer.ipv4.arp retryTimeout 1s
attr unit s
par LunarNetwork.ftpServer.ipv4.arp retryCount 3
par LunarNetwork.ftpServer.ipv4.arp cacheTimeout 120s
attr unit s
par LunarNetwork.ftpServer.ipv4.arp proxyArpInterfaces "\"\""
scalar LunarNetwork.ftpServer.ipv4.arp arpResolutionFailed:count 0
attr recordingmode count
attr title "ARP failed resolutions, count"
scalar LunarNetwork.ftpServer.ipv4.arp arpResolutionCompleted:count 0
attr recordingmode count
attr title "ARP completed resolutions, count"
scalar LunarNetwork.ftpServer.ipv4.arp arpResolutionInitiated:count 0
attr recordingmode count
attr title "ARP initiated resolutions, count"
scalar LunarNetwork.ftpServer.ipv4.arp arpReplySent:count 0
attr recordingmode count
attr source arpReplySent
attr title "ARP replies sent, count"
scalar LunarNetwork.ftpServer.ipv4.arp arpReplySent:sum(packetBytes) 0
attr recordingmode sum(packetBytes)
attr source arpReplySent
attr title "ARP replies sent, sum(packetBytes)"
scalar LunarNetwork.ftpServer.ipv4.arp arpRequestSent:count 0
attr recordingmode count
attr source arpRequestSent
attr title "ARP request sent, count"
scalar LunarNetwork.ftpServer.ipv4.arp arpRequestSent:sum(packetBytes) 0
attr recordingmode sum(packetBytes)
attr source arpRequestSent
attr title "ARP request sent, sum(packetBytes)"
par LunarNetwork.ftpServer.ipv4.lp typename "\"inet.common.MessageDispatcher\""
par LunarNetwork.ftpServer.ipv4.lp displayStringTextFormat "\"processed %p pk (%l)\""
par LunarNetwork.ftpServer.ipv4.lp forwardServiceRegistration true
par LunarNetwork.ftpServer.ipv4.lp forwardProtocolRegistration true
par LunarNetwork.ftpServer.ipv4 typename "\"inet.networklayer.ipv4.Ipv4NetworkLayer\""
par LunarNetwork.ftpServer.ipv4 forwarding false
par LunarNetwork.ftpServer.ipv4 multicastForwarding false
par LunarNetwork.ftpServer.ipv4 interfaceTableModule "\"LunarNetwork.ftpServer.interfaceTable\""
par LunarNetwork.ftpServer.ipv4 displayStringTextFormat "\"%i\""
par LunarNetwork.ftpServer.nl typename "\"inet.common.MessageDispatcher\""
par LunarNetwork.ftpServer.nl displayStringTextFormat "\"processed %p pk (%l)\""
par LunarNetwork.ftpServer.nl forwardServiceRegistration true
par LunarNetwork.ftpServer.nl forwardProtocolRegistration true
par LunarNetwork.ftpServer.udp typename "\"inet.transportlayer.udp.Udp\""
par LunarNetwork.ftpServer.udp interfaceTableModule "\"LunarNetwork.ftpServer.interfaceTable\""
par LunarNetwork.ftpServer.udp icmpModule "\"^.ipv4.icmp\""
par LunarNetwork.ftpServer.udp icmpv6Module "\"^.ipv6.icmpv6\""
par LunarNetwork.ftpServer.udp crcMode "\"declared\""
attr enum disabled,declared,computed
par LunarNetwork.ftpServer.udp defaultMulticastLoop true
scalar LunarNetwork.ftpServer.udp packetReceived:count 0
attr interpolationmode none
attr recordingmode count
attr source packetReceived
attr title "packets received, count"
scalar LunarNetwork.ftpServer.udp packetReceived:sum(packetBytes) 0
attr interpolationmode none
attr recordingmode sum(packetBytes)
attr source packetReceived
attr title "packets received, sum(packetBytes)"
scalar LunarNetwork.ftpServer.udp packetSent:count 0
attr interpolationmode none
attr recordingmode count
attr source packetSent
attr title "packets sent, count"
scalar LunarNetwork.ftpServer.udp packetSent:sum(packetBytes) 0
attr interpolationmode none
attr recordingmode sum(packetBytes)
attr source packetSent
attr title "packets sent, sum(packetBytes)"
scalar LunarNetwork.ftpServer.udp passedUpPk:count 0
attr interpolationmode none
attr recordingmode count
attr source packetSentToUpper
attr title "packets passed up, count"
scalar LunarNetwork.ftpServer.udp droppedPkWrongPort:count 0
attr interpolationmode none
attr recordingmode count
attr source packetDropReasonIsNoPortFound(packetDropped)
attr title "packets dropped (wrong port), count"
scalar LunarNetwork.ftpServer.udp droppedPkBadChecksum:count 0
attr interpolationmode none
attr recordingmode count
attr source packetDropReasonIsIncorrectlyReceived(packetDropped)
attr title "packets dropped (checksum error), count"
par LunarNetwork.ftpServer.tcp.conn-16 typename "\"inet.transportlayer.tcp.TcpConnection\""
par LunarNetwork.ftpServer.tcp.conn-50 typename "\"inet.transportlayer.tcp.TcpConnection\""
par LunarNetwork.ftpServer.tcp typename "\"inet.transportlayer.tcp.Tcp\""
par LunarNetwork.ftpServer.tcp crcMode "\"declared\""
attr enum declared,computed
par LunarNetwork.ftpServer.tcp advertisedWindow 1460000
par LunarNetwork.ftpServer.tcp delayedAcksEnabled false
par LunarNetwork.ftpServer.tcp nagleEnabled true
par LunarNetwork.ftpServer.tcp limitedTransmitEnabled false
par LunarNetwork.ftpServer.tcp increasedIWEnabled false
par LunarNetwork.ftpServer.tcp sackSupport false
par LunarNetwork.ftpServer.tcp windowScalingSupport true
par LunarNetwork.ftpServer.tcp windowScalingFactor -1
par LunarNetwork.ftpServer.tcp timestampSupport false
par LunarNetwork.ftpServer.tcp mss 1460
par LunarNetwork.ftpServer.tcp msl 120s
attr unit s
par LunarNetwork.ftpServer.tcp tcpAlgorithmClass "\"TcpNewReno\""
attr enum TcpVegas,TcpWestwood,TcpNewReno,TcpReno,TcpTahoe,TcpNoCongestionControl
par LunarNetwork.ftpServer.tcp useDataNotification false
par LunarNetwork.ftpServer.tcp dupthresh 3
par LunarNetwork.ftpServer.tcp initialSsthresh 4294967295
par LunarNetwork.ftpServer.tcp stopOperationExtraTime 0s
attr unit s
par LunarNetwork.ftpServer.tcp stopOperationTimeout 2s
attr unit s
par LunarNetwork.ftpServer.tcp ecnWillingness false
par LunarNetwork.ftpServer.tcp dctcpGamma 0.0625
par LunarNetwork.ftpServer.tn typename "\"inet.common.MessageDispatcher\""
par LunarNetwork.ftpServer.tn displayStringTextFormat "\"processed %p pk (%l)\""
par LunarNetwork.ftpServer.tn forwardServiceRegistration true
par LunarNetwork.ftpServer.tn forwardProtocolRegistration true
par LunarNetwork.ftpServer.app[0] typename "\"inet.applications.tcpapp.TcpGenericServerApp\""
par LunarNetwork.ftpServer.app[0] localAddress "\"\""
par LunarNetwork.ftpServer.app[0] localPort 3001
par LunarNetwork.ftpServer.app[0] replyDelay 0s
attr unit s
par LunarNetwork.ftpServer.app[0] stopOperationExtraTime -1s
attr unit s
par LunarNetwork.ftpServer.app[0] stopOperationTimeout 2s
attr unit s
scalar LunarNetwork.ftpServer.app[0] packetReceived:count 28848
attr interpolationmode none
attr recordingmode count
attr source packetReceived
attr title "packets received, count"
scalar LunarNetwork.ftpServer.app[0] packetReceived:sum(packetBytes) 45600180
attr interpolationmode none
attr recordingmode sum(packetBytes)
attr source packetReceived
attr title "packets received, sum(packetBytes)"
statistic LunarNetwork.ftpServer.app[0] endToEndDelay:histogram
field count 62466
field mean 53.480675095258
field stddev 25.625612782961
field min 7.870487006728
field max 97.841077518929
field sum 3340723.8505004
field sqrsum 219683185.21691
attr interpolationmode none
attr recordingmode histogram
attr source dataAge(packetReceived)
attr title "end-to-end delay"
attr unit s
bin	-inf	0
bin	7.58	12
bin	8.86	852
bin	10.14	442
bin	11.42	330
bin	12.7	562
bin	13.98	722
bin	15.26	970
bin	16.54	1054
bin	17.82	1124
bin	19.1	1132
bin	20.38	1236
bin	21.66	888
bin	22.94	960
bin	24.22	1218
bin	25.5	986
bin	26.78	926
bin	28.06	794
bin	29.34	1186
bin	30.62	1202
bin	31.9	1210
bin	33.18	406
bin	34.46	724
bin	35.74	972
bin	37.02	1088
bin	38.3	1196
bin	39.58	818
bin	40.86	878
bin	42.14	1122
bin	43.42	1028
bin	44.7	244
bin	45.98	718
bin	47.26	990
bin	48.54	1046
bin	49.82	1208
bin	51.1	878
bin	52.38	534
bin	53.66	866
bin	54.94	1104
bin	56.22	1162
bin	57.5	604
bin	58.78	786
bin	60.06	988
bin	61.34	1082
bin	62.62	1130
bin	63.9	1204
bin	65.18	1234
bin	66.46	1014
bin	67.74	172
bin	69.02	312
bin	70.3	538
bin	71.58	766
bin	72.86	836
bin	74.14	1024
bin	75.42	616
bin	76.7	818
bin	77.98	1002
bin	79.26	1082
bin	80.54	1200
bin	81.82	1208
bin	83.1	632
bin	84.38	690
bin	85.66	374
bin	86.94	448
bin	88.22	694
bin	89.5	944
bin	90.78	1136
bin	92.06	1204
bin	93.34	1124
bin	94.62	1240
bin	95.9	1128
bin	97.18	448
bin	98.46	0
statistic LunarNetwork.ftpServer.app[0] endToEndDelay:weightedHistogram
field count 62466
field mean 53.480675095263
field stddev 25.625798172589
field min 7.870487006728
field max 97.841077518929
field weights 364801440
field weightedSum 19509827286.924
field sqrSumWeights 4055936369664
field weightedSqrSum 1282949801666.8
attr interpolationmode none
attr recordingmode weightedHistogram
attr source dataAge(packetReceived)
attr title "end-to-end delay, weightedHistogram"
attr unit s
bin	-inf	0
bin	7.58	70080
bin	8.86	4975680
bin	10.14	2581280
bin	11.42	1927200
bin	12.7	3282080
bin	13.98	4216480
bin	15.26	5664800
bin	16.54	6155360
bin	17.82	6564160
bin	19.1	6610880
bin	20.38	7218240
bin	21.66	5185920
bin	22.94	5606400
bin	24.22	7113120
bin	25.5	5758240
bin	26.78	5407840
bin	28.06	4636960
bin	29.34	6926240
bin	30.62	7019680
bin	31.9	7066400
bin	33.18	2371040
bin	34.46	4228160
bin	35.74	5676480
bin	37.02	6353920
bin	38.3	6984640
bin	39.58	4777120
bin	40.86	5127520
bin	42.14	6552480
bin	43.42	6003520
bin	44.7	1424960
bin	45.98	4193120
bin	47.26	5781600
bin	48.54	6108640
bin	49.82	7054720
bin	51.1	5127520
bin	52.38	3118560
bin	53.66	5057440
bin	54.94	6447360
bin	56.22	6786080
bin	57.5	3527360
bin	58.78	4590240
bin	60.06	5769920
bin	61.34	6318880
bin	62.62	6599200
bin	63.9	7031360
bin	65.18	7206560
bin	66.46	5921760
bin	67.74	1004480
bin	69.02	1822080
bin	70.3	3141920
bin	71.58	4473440
bin	72.86	4882240
bin	74.14	5980160
bin	75.42	3597440
bin	76.7	4777120
bin	77.98	5851680
bin	79.26	6318880
bin	80.54	7008000
bin	81.82	7054720
bin	83.1	3690880
bin	84.38	4029600
bin	85.66	2184160
bin	86.94	2616320
bin	88.22	4052960
bin	89.5	5512960
bin	90.78	6634240
bin	92.06	7031360
bin	93.34	6564160
bin	94.62	7241600
bin	95.9	6587520
bin	97.18	2616320
bin	98.46	0
scalar LunarNetwork.ftpServer.app[0] packetSent:count 0
attr interpolationmode none
attr recordingmode count
attr source packetSent
attr title "packets sent, count"
scalar LunarNetwork.ftpServer.app[0] packetSent:sum(packetBytes) 0
attr interpolationmode none
attr recordingmode sum(packetBytes)
attr source packetSent
attr title "packets sent, sum(packetBytes)"
par LunarNetwork.ftpServer.at typename "\"inet.common.MessageDispatcher\""
par LunarNetwork.ftpServer.at displayStringTextFormat "\"processed %p pk (%l)\""
par LunarNetwork.ftpServer.at forwardServiceRegistration true
par LunarNetwork.ftpServer.at forwardProtocolRegistration true
par LunarNetwork.ftpServer typename "\"inet.node.inet.StandardHost\""
par LunarNetwork.ftpServer hasStatus false
par LunarNetwork.ftpServer osgModel "\"\""
par LunarNetwork.ftpServer osgModelColor "\"\""
par LunarNetwork.ftpServer canvasImage "\"\""
par LunarNetwork.ftpServer canvasImageColor "\"\""
par LunarNetwork.ftpServer recordPcap false
par LunarNetwork.ftpServer numPcapRecorders 0
par LunarNetwork.ftpServer numLoInterfaces 1
par LunarNetwork.ftpServer numWlanInterfaces 0
par LunarNetwork.ftpServer numEthInterfaces 0
par LunarNetwork.ftpServer numPppInterfaces 0
par LunarNetwork.ftpServer numTunInterfaces 0
par LunarNetwork.ftpServer numVirtInterfaces 0
par LunarNetwork.ftpServer fcsMode "\"declared\""
attr enum declared,computed
par LunarNetwork.ftpServer hasIpv4 true
par LunarNetwork.ftpServer hasIpv6 false
par LunarNetwork.ftpServer hasGn false
par LunarNetwork.ftpServer forwarding false
par LunarNetwork.ftpServer multicastForwarding false
par LunarNetwork.ftpServer hasUdp true
par LunarNetwork.ftpServer hasTcp true
par LunarNetwork.ftpServer hasSctp false
par LunarNetwork.ftpServer numApps 1
par LunarNetwork typename "\"LunarNetwork\""
par LunarNetwork numWebClients 10

